1
    SWAT Jan 13 2025   VER kalcic-nifafrozen                                                             0/ 0/   0      0: 0: 0

    General Input/Output section (file.cio):                                        
    8/10/2023 12:00:00 AM ARCGIS-SWAT interface AV                                  
                                                                                    


LULC  HRU       GIS  SUB  MGT  MON   AREAkm2  PRECIPmm SNOFALLmm SNOMELTmm     IRRmm     PETmm      ETmm SW_INITmm  SW_ENDmm    PERCmm GW_RCHGmm DA_RCHGmm   REVAPmm  SA_IRRmm  DA_IRRmm   SA_STmm   DA_STmm SURQGENmm SURQCNTmm   TLOSSmm LATQGENmm    GW_Qmm    WYLDmm   DAILYCN TMP_AVdgC  TMP_MXdC  TMP_MNdC SOL_TMPdC SOLRMJ/m2  SYLDt/ha  USLEt/ha SUR_TMPdC  wattblmm   QTILEmm SOLTMP3dc SOLTMP4dc SOLTMP5dc   VWC10mm   VWC20mm   VWC50mm Tno3kg/ha Sno3kg/ha    TPg/ha    SPg/ha
CORN    1 000010001    1    0    1.61900E-01     0.000     0.000     0.000     0.000     1.057     0.530   584.497   583.907     0.000     0.052     0.003     0.021     0.000     0.000   973.524  2000.199     0.000     0.011     0.000     0.088     0.000     1.051    96.714    -3.050    -1.100    -5.000     1.883     7.654     0.000     0.000     1.626   218.162    0.9503    2.4550    3.1352    4.9307    0.3475    0.4398    0.4451    0.0004    0.0000    0.0000    0.0005
CORN    1 000010001    1    0    2.61900E-01     0.000     0.000     0.000     0.000     0.948     0.478   583.907   583.368     0.000     0.050     0.003     0.019     0.000     0.000   973.553  2000.200     0.000     0.001     0.000     0.087     0.000     0.830    96.686    -3.050     0.000    -6.100     0.634     7.975     0.000     0.000     0.364   220.093    0.7401    1.2316    1.9547    3.8975    0.3461    0.4393    0.4451    0.0003    0.0000    0.0000    0.0000
CORN    1 000010001    1    0    3.61900E-01     0.000     0.000     0.000     0.000     1.175     0.589   583.368   582.718     0.000     0.049     0.002     0.024     0.000     0.000   973.576  2000.200     0.000     0.000     0.000     0.087     0.000     0.665    96.661    -1.100     2.200    -4.400     0.169     6.505     0.000     0.000    -0.072   221.855    0.5764    0.7057    1.3689    3.1919    0.3443    0.4385    0.4451    0.0003    0.0000    0.0000    0.0000
CORN    1 000010001    1    0    4.61900E-01     0.300     0.300     0.000     0.000     0.107     0.053   582.718   582.605     0.000     0.047     0.002     0.002     0.000     0.000   973.619  2000.200     0.000     0.000     0.000     0.086     0.000     0.537    98.833    -3.050    -1.100    -5.000    -0.680     7.074     0.000     0.000    -0.939   221.855    0.4489   -0.1087    0.5878    2.4848    0.3442    0.4384    0.4451    0.0002    0.0000    0.0000    0.0000
CORN    1 000010001    1    0    5.61900E-01     0.000     0.000     0.000     0.000     0.094     0.046   582.605   582.499     0.000     0.046     0.002     0.002     0.000     0.000   973.660  2000.201     0.000     0.000     0.000     0.086     0.000     0.437    98.833    -6.700    -1.700   -11.700    -2.317     4.679     0.000     0.000    -2.640   221.855    0.3496   -1.6155   -0.7768    1.4701    0.3441    0.4383    0.4451    0.0002    0.0000    0.0000    0.0000
CORN    1 000010001    1    0    6.61900E-01     0.000     0.000     0.000     0.000     0.695     0.341   582.499   582.098     0.000     0.044     0.002     0.014     0.000     0.000   973.688  2000.201     0.000     0.000     0.000     0.085     0.000     0.359    98.833    -5.850    -0.600   -11.100    -2.087     4.527     0.000     0.000    -2.356   221.855    0.2723   -1.5081   -0.8197    1.0507    0.3431    0.4376    0.4451    0.0001    0.0000    0.0000    0.0000
CORN    1 000010001    1    0    7.61900E-01     0.000     0.000     0.000     0.000     0.363     0.178   582.098   581.859     0.000     0.043     0.002     0.007     0.000     0.000   973.722  2000.201     0.000     0.000     0.000     0.085     0.000     0.299    98.833    -1.150     4.400    -6.700    -0.298     4.977     0.000     0.000    -0.435   221.855    0.2120    0.0032    0.3815    1.4808    0.3426    0.4372    0.4451    0.0001    0.0000    0.0000    0.0000
CORN    1 000010001    1    0    8.61900E-01     0.500     0.000     0.001     0.000     0.449     0.221   581.859   582.301     0.000     0.042     0.002     0.009     0.000     0.000   973.752  2000.201     0.000     0.000     0.000     0.084     0.000     0.251    96.589     2.500     8.300    -3.300     1.116     4.163     0.000     0.000     1.060   225.147    0.1651    1.2483    1.4475    2.1337    0.3447    0.4400    0.4451    0.0001    0.0000    0.0000    0.0000
CORN    1 000010001    1    0    9.61900E-01    10.200     0.000     0.000     0.000     0.529     0.278   582.301   585.900     0.532     0.057     0.003     0.011     0.000     0.000   973.796  2000.202     0.361     0.330     0.000     0.087     0.000     1.076    96.610     5.000     8.300     1.700     4.115     0.550     0.007     0.074     4.233   194.915    0.6557    3.8893    3.7079    3.5175    0.3502    0.4400    0.4451    0.0005    0.0000    0.1445    0.0143
CORN    1 000010001    1    0   10.61900E-01    23.900     0.000     0.000     0.000     0.567     0.279   585.900   585.821     0.035     0.056     0.003     0.011     0.000     0.000   973.838  2000.202    15.859    14.547     0.000     0.092     0.000    16.006    96.779     3.850     9.400    -1.700     3.964     2.141     0.716     0.112     3.999   183.876    1.3645    3.9174    3.9614    4.1085    0.3503    0.4400    0.4451    0.0012    0.0000    0.1491    0.6307
CORN    1 000010001    1    0   11.61900E-01     1.500     1.500     0.000     0.000     0.000     0.000   585.821   585.761     0.000     0.055     0.003     0.000     0.000     0.000   973.890  2000.203     0.000     1.229     0.000     0.092     0.000     2.385    98.833    -8.350    -1.100   -15.600    -1.279     3.655     0.000     0.000    -1.622   183.876    1.0627   -0.5201    0.3273    2.4118    0.3503    0.4400    0.4451    0.0010    0.0000    0.0000    0.0533
CORN    1 000010001    1    0   12.61900E-01     2.500     2.500     0.000     0.000     0.419     0.209   585.761   585.491     0.000     0.053     0.003     0.008     0.000     0.000   973.932  2000.203     0.000     0.104     0.000     0.091     0.000     1.025    98.833    -8.650    -1.700   -15.600    -6.112     0.948     0.000     0.000    -6.625   183.876    0.8276   -4.9663   -3.6394   -0.2241    0.3501    0.4400    0.4451    0.0007    0.0000    0.0000    0.0045
CORN    1 000010001    1    0   13.61900E-01     1.000     1.000     0.000     0.000     0.000     0.000   585.491   585.431     0.000     0.051     0.003     0.000     0.000     0.000   973.980  2000.204     0.000     0.009     0.000     0.090     0.000     0.746    98.833   -12.500    -5.600   -19.400    -2.123     5.823     0.000     0.000    -8.611   183.876    0.6446   -1.6731   -1.1448    0.2527    0.3501    0.4400    0.4451    0.0006    0.0000    0.0000    0.0004
CORN    1 000010001    1    0   14.61900E-01     0.500     0.500     0.000     0.000     0.347     0.174   585.431   585.335     0.000     0.050     0.002     0.007     0.000     0.000   974.020  2000.204     0.000     0.001     0.000     0.090     0.000     0.595    98.833   -11.650    -3.900   -19.400    -2.159     7.205     0.000     0.000   -10.006   183.876    0.5020   -1.7156   -1.1953    0.1778    0.3498    0.4400    0.4451    0.0005    0.0000    0.0000    0.0000
CORN    1 000010001    1    0   15.61900E-01     0.000     0.000     0.000     0.000     1.428     0.733   585.335   585.256     0.000     0.048     0.002     0.029     0.000     0.000   974.037  2000.205     0.000     0.000     0.000     0.089     0.000     0.482    98.833     1.100     6.100    -3.900    -0.157     8.984     0.000     0.000    -3.588   183.876    0.3909    0.0285    0.2651    0.9584    0.3498    0.4400    0.4451    0.0004    0.0000    0.0000    0.0000
CORN    1 000010001    1    0   16.61900E-01     5.800     0.000     0.000     0.000     0.213     0.107   585.256   586.100     0.124     0.050     0.003     0.004     0.000     0.000   974.081  2000.205     0.523     0.479     0.000     0.091     0.000     1.275    96.749     2.500     6.100    -1.100     1.279     4.716     0.028     0.003     0.651   199.265    0.7028    1.3254    1.4182    1.8005    0.3503    0.4400    0.4451    0.0007    0.0000    0.0903    0.0207
CORN    1 000010001    1    0   17.61900E-01     0.000     0.000     0.000     0.000     0.222     0.111   586.100   585.928     0.000     0.049     0.002     0.004     0.000     0.000   974.123  2000.206     0.000     0.040     0.000     0.091     0.000     0.681    96.788    -3.100    -0.600    -5.600     0.523     7.230     0.000     0.000    -2.651   212.923    0.5474    0.7230    0.9968    1.8573    0.3503    0.4400    0.4451    0.0005    0.0000    0.0000    0.0017
CORN    1 000010001    1    0   18.61900E-01     0.000     0.000     0.000     0.000     0.332     0.166   585.928   585.702     0.000     0.047     0.002     0.007     0.000     0.000   974.161  2000.206     0.000     0.003     0.000     0.090     0.000     0.522    98.833   -11.400    -5.000   -17.800    -1.184     6.499     0.000     0.000    -8.182   212.923    0.4263   -0.7565   -0.2299    1.2439    0.3502    0.4400    0.4451    0.0004    0.0000    0.0000    0.0001
CORN    1 000010001    1    0   19.61900E-01     0.000     0.000     0.000     0.000     0.635     0.318   585.702   585.323     0.000     0.046     0.002     0.013     0.000     0.000   974.192  2000.206     0.000     0.000     0.000     0.090     0.000     0.424    98.833   -14.200   -10.600   -17.800    -2.610     3.592     0.000     0.000   -12.139   212.923    0.3320   -2.0356   -1.3564    0.4536    0.3499    0.4400    0.4451    0.0003    0.0000    0.0000    0.0000
CORN    1 000010001    1    0   20.61900E-01     0.000     0.000     0.000     0.000     0.026     0.013   585.323   585.250     0.000     0.044     0.002     0.001     0.000     0.000   974.233  2000.206     0.000     0.000     0.000     0.089     0.000     0.350    98.833   -12.500    -7.800   -17.200    -2.613     6.060     0.000     0.000   -11.261   212.923    0.2586   -2.0929   -1.4844    0.1138    0.3499    0.4400    0.4451    0.0003    0.0000    0.0000    0.0000
CORN    1 000010001    1    0   21.61900E-01     0.800     0.800     0.000     0.000     0.000     0.000   585.250   584.746     0.000     0.043     0.002     0.000     0.000     0.000   974.274  2000.206     0.000     0.000     0.000     0.088     0.000     0.292    98.833   -11.400    -7.200   -15.600    -2.501     5.007     0.000     0.000   -10.446   212.923    0.2014   -2.0238   -1.4673   -0.0139    0.3499    0.4400    0.4451    0.0002    0.0000    0.0000    0.0000
CORN    1 000010001    1    0   22.61900E-01     0.000     0.000     0.000     0.000     0.000     0.000   584.746   583.896     0.000     0.042     0.002     0.000     0.000     0.000   974.314  2000.206     0.000     0.000     0.000     0.088     0.000     0.247    98.833    -8.900    -3.900   -13.900    -1.746     6.817     0.000     0.000    -8.767   212.923    0.1568   -1.3797   -0.9473    0.1991    0.3499    0.4400    0.4451    0.0002    0.0000    0.0000    0.0000
CORN    1 000010001    1    0   23.61900E-01     0.000     0.000     0.000     0.000     0.637     0.318   583.896   582.790     0.000     0.040     0.002     0.013     0.000     0.000   974.339  2000.206     0.000     0.000     0.000     0.087     0.000     0.211    98.833    -5.550    -3.900    -7.200    -1.064     7.513     0.000     0.000    -6.380   212.923    0.1221   -0.7839   -0.4464    0.4732    0.3471    0.4396    0.4451    0.0001    0.0000    0.0000    0.0000
CORN    1 000010001    1    0   24.61900E-01     0.000     0.000     0.000     0.000     0.686     0.343   582.790   581.556     0.000     0.039     0.002     0.014     0.000     0.000   974.362  2000.206     0.000     0.000     0.000     0.087     0.000     0.184    98.833    -6.950    -2.800   -11.100    -0.971     6.334     0.000     0.000    -6.505   212.923    0.0951   -0.6780   -0.3215    0.6620    0.3412    0.4388    0.4451    0.0001    0.0000    0.0000    0.0000
CORN    1 000010001    1    0   25.61900E-01     0.000     0.000     0.000     0.000     0.428     0.214   581.556   580.556     0.000     0.038     0.002     0.009     0.000     0.000   974.390  2000.206     0.000     0.000     0.000     0.086     0.000     0.162    98.833    -4.150     1.100    -9.400    -0.404     6.489     0.000     0.000    -4.737   212.923    0.0741   -0.1709    0.1215    0.9591    0.3364    0.4383    0.4451    0.0001    0.0000    0.0000    0.0000
CORN    1 000010001    1    0   26.61900E-01     0.000     0.000     0.000     0.000     0.033     0.016   580.556   580.264     0.000     0.036     0.002     0.001     0.000     0.000   974.424  2000.206     0.000     0.000     0.000     0.085     0.000     0.145    96.525     1.650     7.200    -3.900     0.904     6.086     0.000     0.000    -0.517   231.806    0.0577    0.9902    1.1233    1.5915    0.3353    0.4383    0.4451    0.0001    0.0000    0.0000    0.0000
CORN    1 000010001    1    0   27.61900E-01     0.000     0.000     0.000     0.000     0.126     0.063   580.264   581.032     0.000     0.035     0.002     0.003     0.000     0.000   974.455  2000.205     0.000     0.000     0.000     0.085     0.000     0.132    96.511    -3.050     0.600    -6.700     0.549     4.356     0.000     0.000    -2.592   229.089    0.0449    0.7255    0.9673    1.7302    0.3413    0.4381    0.4451    0.0000    0.0000    0.0000    0.0000
CORN    1 000010001    1    0   28.61900E-01     0.000     0.000     0.000     0.000     0.455     0.227   581.032   581.366     0.000     0.034     0.002     0.009     0.000     0.000   974.478  2000.205     0.000     0.000     0.000     0.084     0.000     0.121    96.549    -4.200    -1.700    -6.700     0.289     6.759     0.000     0.000    -3.734   227.461    0.0350    0.5129    0.8092    1.7137    0.3452    0.4376    0.4451    0.0000    0.0000    0.0000    0.0000
CORN    1 000010001    1    0   29.61900E-01     0.300     0.000     0.000     0.000     0.000     0.000   581.366   581.827     0.000     0.033     0.002     0.000     0.000     0.000   974.510  2000.204     0.000     0.000     0.000     0.084     0.000     0.113    96.565     0.550     6.100    -5.000     1.185     4.975     0.000     0.000    -0.629   226.696    0.0273    1.2950    1.4664    2.0724    0.3471    0.4400    0.4451    0.0000    0.0000    0.0000    0.0000
CORN    1 000010001    1    0   30.61900E-01     0.000     0.000     0.000     0.000     0.495     0.247   581.827   581.865     0.000     0.032     0.002     0.010     0.000     0.000   974.530  2000.204     0.000     0.000     0.000     0.083     0.000     0.107    96.587    -1.950     1.100    -5.000     0.986     5.030     0.000     0.000    -1.812   225.761    0.0212    1.1489    1.3827    2.1599    0.3464    0.4395    0.4451    0.0000    0.0000    0.0000    0.0000
CORN    1 000010001    1    0   31.61900E-01     0.000     0.000     5.463     0.000     1.443     0.723   581.865   585.377     0.510     0.047     0.002     0.029     0.000     0.000   974.546  2000.204     0.000     0.000     0.000     0.084     0.000     0.189    96.589     4.700    14.400    -5.000     2.113     6.825     0.000     0.000     1.989   209.811    0.1028    2.1383    2.2230    2.6501    0.3502    0.4400    0.4451    0.0001    0.0000    0.0694    0.0000
CORN    1 000010001    1    0   32.61900E-01     0.300     0.000     0.000     0.000     0.189     0.093   585.377   586.007     0.051     0.047     0.002     0.004     0.000     0.000   974.587  2000.204     0.000     0.000     0.000     0.084     0.000     0.179    96.755     3.600    14.400    -7.200     2.622     5.706     0.000     0.000     2.632   212.276    0.0933    2.6165    2.6746    3.0674    0.3503    0.4400    0.4451    0.0001    0.0000    0.0001    0.0000
CORN    1 000010001    1    0   33.61900E-01     0.000     0.000     0.000     0.000     1.320     0.661   586.007   585.439     0.000     0.046     0.002     0.026     0.000     0.000   974.604  2000.205     0.000     0.000     0.000     0.084     0.000     0.286    96.784     2.500     7.800    -2.800     2.612    10.099     0.000     0.000     2.609   208.421    0.2001    2.6392    2.7402    3.2641    0.3502    0.4400    0.4451    0.0003    0.0000    0.0024    0.0000
CORN    1 000010001    1    0   34.61900E-01    21.100     0.000     0.000     0.000     0.301     0.148   585.439   585.952     0.115     0.048     0.002     0.006     0.000     0.000   974.644  2000.205    12.773    11.694     0.000     0.088     0.000    12.650    96.758     7.200    13.300     1.100     4.018     6.572     0.994     0.281     4.071   188.753    0.8653    3.9281    3.9136    3.9752    0.3503    0.4400    0.4451    0.0016    0.0000    0.1545    0.5231
CORN    1 000010001    1    0   35.61900E-01     0.000     0.000     0.000     0.000     1.852     0.929   585.952   584.963     0.000     0.047     0.002     0.037     0.000     0.000   974.651  2000.205     0.000     0.988     0.000     0.088     0.000     1.751    96.781     5.250    13.300    -2.800     4.332     8.929     0.000     0.000     4.372   213.406    0.6739    4.2730    4.3088    4.4449    0.3497    0.4400    0.4451    0.0012    0.0000    0.0000    0.0442
CORN    1 000010001    1    0   36.61900E-01     0.000     0.000     0.000     0.000     1.083     0.532   584.963   584.561     0.000     0.045     0.002     0.022     0.000     0.000   974.672  2000.205     0.000     0.083     0.000     0.088     0.000     0.897    96.736    -5.550    -2.200    -8.900     2.228    10.375     0.000     0.000     2.123   209.328    0.7229    2.4881    2.8843    3.8824    0.3489    0.4400    0.4451    0.0013    0.0000    0.0000    0.0037
CORN    1 000010001    1    0   37.61900E-01     0.000     0.000     0.000     0.000     0.539     0.265   584.561   584.235     0.000     0.044     0.002     0.011     0.000     0.000   974.703  2000.206     0.000     0.007     0.000     0.088     0.000     0.660    96.717    -2.500     3.900    -8.900     1.162     9.201     0.000     0.000     0.995   217.956    0.5630    1.5518    2.0201    3.2707    0.3481    0.4399    0.4451    0.0010    0.0000    0.0000    0.0003
CORN    1 000010001    1    0   38.61900E-01     0.000     0.000     0.000     0.000     1.248     0.627   584.235   583.547     0.000     0.042     0.002     0.025     0.000     0.000   974.718  2000.206     0.000     0.001     0.000     0.087     0.000     0.528    96.702    -1.150     4.400    -6.700     0.654     9.098     0.000     0.000     0.487   219.020    0.4384    1.0391    1.5124    2.8079    0.3462    0.4394    0.4451    0.0008    0.0000    0.0000    0.0000
CORN    1 000010001    1    0   39.61900E-01     1.000     0.000     0.000     0.000     0.607     0.298   583.547   584.211     0.000     0.041     0.002     0.012     0.000     0.000   974.745  2000.206     0.000     0.000     0.000     0.087     0.000     0.430    96.669     4.700    10.000    -0.600     2.665     2.948     0.000     0.000     2.644   217.926    0.3415    2.7344    2.8677    3.3632    0.3494    0.4398    0.4451    0.0006    0.0000    0.0000    0.0000
CORN    1 000010001    1    0   40.61900E-01     0.300     0.000     0.000     0.000     0.225     0.110   584.211   584.340     0.000     0.040     0.002     0.004     0.000     0.000   974.778  2000.205     0.000     0.000     0.000     0.086     0.000     0.354    96.700    -0.550     3.900    -5.000     1.221     3.093     0.000     0.000     1.061   218.118    0.2659    1.5697    1.9807    3.0676    0.3500    0.4399    0.4451    0.0005    0.0000    0.0037    0.0000
CORN    1 000010001    1    0   41.61900E-01     0.500     0.500     0.000     0.000     0.142     0.071   584.340   584.225     0.000     0.038     0.002     0.003     0.000     0.000   974.812  2000.205     0.000     0.000     0.000     0.085     0.000     0.295    98.833    -7.800    -5.000   -10.600    -3.698     2.143     0.000     0.000    -4.133   218.118    0.2071   -2.7610   -1.6874    1.0350    0.3498    0.4399    0.4451    0.0004    0.0000    0.0000    0.0000
CORN    1 000010001    1    0   42.61900E-01     0.300     0.300     0.000     0.000     0.000     0.000   584.225   584.164     0.000     0.037     0.002     0.000     0.000     0.000   974.847  2000.205     0.000     0.000     0.000     0.085     0.000     0.248    98.833   -11.950    -8.300   -15.600   -10.244     0.267     0.000     0.000   -10.990   218.118    0.1613   -8.6496   -6.8588   -2.3834    0.3498    0.4399    0.4451    0.0003    0.0000    0.0000    0.0000
CORN    1 000010001    1    0   43.61900E-01     0.000     0.000     0.000     0.000     0.789     0.394   584.164   583.710     0.000     0.036     0.002     0.016     0.000     0.000   974.865  2000.205     0.000     0.000     0.000     0.084     0.000     0.212    98.833   -10.000    -5.600   -14.400    -2.656     7.067     0.000     0.000    -2.884   218.118    0.1256   -2.1637   -1.5965   -0.1269    0.3486    0.4395    0.4451    0.0002    0.0000    0.0000    0.0000
CORN    1 000010001    1    0   44.61900E-01     0.000     0.000     0.000     0.000     0.528     0.264   583.710   583.050     0.000     0.035     0.002     0.011     0.000     0.000   974.888  2000.204     0.000     0.000     0.000     0.084     0.000     0.184    98.833   -12.250    -5.600   -18.900    -2.674     9.004     0.000     0.000    -2.903   218.118    0.0978   -2.1806   -1.6102   -0.1276    0.3478    0.4391    0.4451    0.0002    0.0000    0.0000    0.0000
CORN    1 000010001    1    0   45.61900E-01     0.000     0.000     0.000     0.000     0.326     0.163   583.050   581.338     0.000     0.034     0.002     0.007     0.000     0.000   974.913  2000.204     0.000     0.000     0.000     0.083     0.000     0.162    98.833   -13.350    -8.900   -17.800    -2.668     9.896     0.000     0.000    -2.895   218.118    0.0762   -2.1806   -1.6171   -0.1541    0.3404    0.4387    0.4451    0.0001    0.0000    0.0000    0.0000
CORN    1 000010001    1    0   46.61900E-01     0.800     0.800     0.000     0.000     0.000     0.000   581.338   579.105     0.000     0.033     0.002     0.000     0.000     0.000   974.944  2000.204     0.000     0.000     0.000     0.083     0.000     0.144    98.833    -9.400    -4.400   -14.400    -1.950     9.108     0.000     0.000    -2.132   218.118    0.0593   -1.5599   -1.1039    0.0970    0.3267    0.4387    0.4451    0.0001    0.0000    0.0000    0.0000
CORN    1 000010001    1    0   47.61900E-01     0.000     0.000     0.000     0.000     0.518     0.270   579.105   576.490     0.000     0.032     0.002     0.010     0.000     0.000   974.964  2000.203     0.000     0.000     0.000     0.082     0.000     0.131    98.833    -2.200     0.600    -5.000    -0.063     9.256     0.000     0.000    -0.126   218.118    0.0462    0.0843    0.2722    0.8252    0.3165    0.4305    0.4450    0.0001    0.0000    0.0000    0.0000
CORN    1 000010001    1    0   48.61900E-01     0.300     0.000     0.000     0.000     0.000     0.000   576.490   576.965     0.000     0.031     0.002     0.000     0.000     0.000   974.993  2000.203     0.000     0.000     0.000     0.082     0.000     0.120    98.833    -2.250    -0.600    -3.900    -0.301     7.012     0.000     0.000    -0.381   218.118    0.0360   -0.1171    0.1132    0.7730    0.3170    0.4350    0.4451    0.0001    0.0000    0.0000    0.0000
CORN    1 000010001    1    0   49.61900E-01     0.000     0.000     0.000     0.000     0.416     0.208   576.965   576.621     0.000     0.030     0.001     0.008     0.000     0.000   975.013  2000.202     0.000     0.000     0.000     0.081     0.000     0.112    96.345    -1.650     2.800    -6.100     0.134     9.716     0.000     0.000     0.079   243.037    0.0280    0.2642    0.4345    0.9508    0.3158    0.4353    0.4450    0.0001    0.0000    0.0000    0.0000
CORN    1 000010001    1    0   50.61900E-01     0.000     0.000     0.000     0.000     0.258     0.129   576.621   576.955     0.000     0.029     0.001     0.005     0.000     0.000   975.035  2000.201     0.000     0.000     0.000     0.081     0.000     0.105    98.833   -16.329    -7.284   -25.374    -1.934    13.742     0.000     0.000    -2.111   243.037    0.0218   -1.5357   -1.0682    0.1687    0.3171    0.4383    0.4450    0.0000    0.0000    0.0000    0.0000
CORN    1 000010001    1    0   51.61900E-01     0.000     0.000     0.927     0.000     1.456     0.748   576.955   575.453     0.000     0.028     0.001     0.029     0.000     0.000   975.032  2000.201     0.000     0.000     0.000     0.081     0.000     0.100    96.345    10.550    16.700     4.400     2.899     9.981     0.000     0.000     3.007   247.293    0.0170    2.6688    2.4404    1.9892    0.3076    0.4387    0.4451    0.0000    0.0000    0.0000    0.0000
CORN    1 000010001    1    0   52.61900E-01     0.000     0.000     0.000     0.000     2.063     1.037   575.453   577.705     0.000     0.027     0.001     0.041     0.000     0.000   975.017  2000.200     0.000     0.000     0.000     0.080     0.000     0.096    96.267    10.850    20.000     1.700     4.350    13.474     0.000     0.000     4.460   236.783    0.0132    4.0799    3.8078    3.3420    0.3213    0.4374    0.4448    0.0000    0.0000    0.0000    0.0000
CORN    1 000010001    1    0   53.61900E-01     0.000     0.000     0.000     0.000     1.035     0.509   577.705   580.583     0.000     0.026     0.001     0.021     0.000     0.000   975.021  2000.199     0.000     0.000     0.000     0.080     0.000     0.092    96.383     4.150    11.100    -2.800     4.300    10.535     0.000     0.000     4.391   229.100    0.0103    4.1195    3.9890    3.9404    0.3420    0.4362    0.4447    0.0000    0.0000    0.0000    0.0000
CORN    1 000010001    1    0   54.61900E-01     0.000     0.000     0.000     0.000     1.350     0.683   580.583   580.922     0.000     0.025     0.001     0.027     0.000     0.000   975.018  2000.198     0.000     0.000     0.000     0.080     0.000     0.090    96.527     1.700     5.600    -2.200     3.655     8.622     0.000     0.000     3.687   227.421    0.0080    3.6068    3.6336    4.0071    0.3401    0.4346    0.4447    0.0000    0.0000    0.0000    0.0000
CORN    1 000010001    1    0   55.61900E-01    24.900     0.000     0.000     0.000     0.109     0.054   580.922   586.046     0.326     0.035     0.002     0.002     0.000     0.000   975.048  2000.198    11.368    10.408     0.000     0.084     0.000    11.248    96.543     3.850     9.400    -1.700     3.738     2.674     1.024     0.257     3.773   187.482    0.7534    3.6910    3.7232    4.1270    0.3503    0.4400    0.4451    0.0001    0.0000    0.1985    0.4757
CORN    1 000010001    1    0   56.61900E-01    13.200     0.000     0.000     0.000     1.145     0.574   586.046   585.526     0.011     0.034     0.002     0.023     0.000     0.000   975.058  2000.198     6.579     6.903     0.000     0.089     0.000     8.380    96.785     1.700     5.600    -2.200     2.736     2.880     0.000     0.140     2.705   185.717    1.3861    2.8303    3.0235    3.8341    0.3502    0.4400    0.4451    0.0003    0.0000    0.1296    0.3122
CORN    1 000010001    1    0   57.61900E-01     2.300     0.000     0.000     0.000     0.201     0.099   585.526   586.001     0.114     0.037     0.002     0.004     0.000     0.000   975.088  2000.197     0.000     0.583     0.000     0.089     0.000     1.899    96.762    -2.500     0.000    -5.000     1.127     6.118     0.000     0.000     0.984   207.808    1.2250    1.4695    1.9440    3.1949    0.3503    0.4400    0.4451    0.0003    0.0000    0.0369    0.0264
CORN    1 000010001    1    0   58.61900E-01     0.000     0.000     0.000     0.000     0.974     0.479   586.001   585.524     0.000     0.035     0.002     0.019     0.000     0.000   975.103  2000.197     0.000     0.049     0.000     0.089     0.000     1.149    96.783    -2.200     0.600    -5.000     0.381     9.198     0.000     0.000     0.221   211.201    1.0085    0.7609    1.2655    2.6368    0.3501    0.4400    0.4451    0.0002    0.0000    0.0000    0.0022
CORN    1 000010001    1    0   59.61900E-01     0.000     0.000     0.000     0.000     1.957     0.983   585.524   584.480     0.000     0.034     0.002     0.039     0.000     0.000   975.096  2000.197     0.000     0.004     0.000     0.089     0.000     0.880    96.761     1.150     5.600    -3.300     0.591    11.177     0.000     0.000     0.457   214.807    0.7855    0.9079    1.3147    2.4724    0.3484    0.4400    0.4451    0.0002    0.0000    0.0000    0.0002
CORN    1 000010001    1    0   60.61900E-01     3.000     0.000     0.000     0.000     0.336     0.165   584.480   585.935     0.275     0.042     0.002     0.007     0.000     0.000   975.129  2000.197     0.000     0.000     0.000     0.089     0.000     0.801    96.713     9.150    17.200     1.100     4.414     3.508     0.000     0.000     4.515   209.422    0.7095    4.2188    4.0609    3.8543    0.3503    0.4400    0.4451    0.0001    0.0000    0.0368    0.0000
CORN    1 000010001    1    0   61.61900E-01     0.000     0.000     0.000     0.000     4.890     2.446   585.935   583.606     0.000     0.041     0.002     0.098     0.000     0.000   975.070  2000.197     0.000     0.000     0.000     0.088     0.000     0.658    96.780     5.300    10.600     0.000     4.628    15.106     0.000     0.000     4.654   212.355    0.5681    4.6062    4.5886    4.5850    0.3493    0.4399    0.4451    0.0001    0.0000    0.0000    0.0000
CORN    1 000010001    1    0   62.61900E-01    13.200     0.000     0.000     0.000     1.366     0.683   583.606   585.417     0.484     0.055     0.003     0.027     0.000     0.000   975.094  2000.198     3.516     3.219     0.000     0.092     0.000     4.379    96.672     1.950    10.600    -6.700     4.005     8.362     0.147     0.011     3.942   191.645    1.0663    4.1361    4.2893    4.6970    0.3502    0.4400    0.4451    0.0002    0.0000    0.1542    0.1443
CORN    1 000010001    1    0   63.61900E-01     0.000     0.000     0.000     0.000     2.020     1.022   585.417   584.335     0.000     0.053     0.003     0.040     0.000     0.000   975.104  2000.198     0.000     0.272     0.000     0.091     0.000     1.196    96.757    -3.050     0.000    -6.100     2.975    15.981     0.000     0.000     2.856   215.155    0.8305    3.2402    3.5540    4.3795    0.3482    0.4399    0.4451    0.0001    0.0000    0.0000    0.0122
CORN    1 000010001    1    0   64.61900E-01     4.100     0.000     0.000     0.000     0.540     0.266   584.335   585.834     0.294     0.061     0.003     0.011     0.000     0.000   975.151  2000.199     0.000     0.023     0.000     0.092     0.000     0.949    96.706    -1.400     0.000    -2.800     2.196    12.310     0.000     0.000     2.051   206.452    0.8324    2.5193    2.9096    3.9579    0.3503    0.4400    0.4451    0.0001    0.0000    0.0563    0.0010
CORN    1 000010001    1    0   65.61900E-01     0.000     0.000     0.000     0.000     1.548     0.775   585.834   584.999     0.000     0.059     0.003     0.031     0.000     0.000   975.176  2000.200     0.000     0.002     0.000     0.091     0.000     0.744    96.776    -0.800     0.600    -2.200     1.827    17.890     0.000     0.000     1.689   213.791    0.6483    2.1455    2.5418    3.6331    0.3495    0.4400    0.4451    0.0001    0.0000    0.0000    0.0001
CORN    1 000010001    1    0   66.61900E-01     0.000     0.000     0.000     0.000     2.449     1.232   584.999   583.706     0.000     0.057     0.003     0.049     0.000     0.000   975.181  2000.201     0.000     0.000     0.000     0.091     0.000     0.598    96.737     0.550     2.800    -1.700     1.670    14.637     0.000     0.000     1.537   216.523    0.5049    1.9745    2.3572    3.4254    0.3464    0.4399    0.4451    0.0001    0.0000    0.0000    0.0000
CORN    1 000010001    1    0   67.61900E-01     0.000     0.000     0.000     0.000     3.179     1.597   583.706   582.049     0.000     0.055     0.003     0.064     0.000     0.000   975.169  2000.202     0.000     0.000     0.000     0.090     0.000     0.485    96.677     2.750     7.200    -1.700     1.882    17.454     0.000     0.000     1.769   220.748    0.3932    2.1393    2.4680    3.4069    0.3417    0.4380    0.4451    0.0001    0.0000    0.0000    0.0000
CORN    1 000010001    1    0   68.61900E-01     0.000     0.000     0.000     0.000     3.992     2.021   582.049   579.968     0.000     0.053     0.003     0.080     0.000     0.000   975.140  2000.202     0.000     0.000     0.000     0.089     0.000     0.398    96.598    10.850    16.100     5.600     3.351    15.267     0.000     0.000     3.327   226.167    0.3062    3.4168    3.5333    3.9543    0.3361    0.4330    0.4450    0.0000    0.0000    0.0000    0.0000
CORN    1 000010001    1    0   69.61900E-01     0.000     0.000     0.000     0.000     4.066     2.051   579.968   577.857     0.000     0.052     0.003     0.081     0.000     0.000   975.108  2000.203     0.000     0.000     0.000     0.089     0.000     0.329    96.496    16.700    21.700    11.700     5.630    14.331     0.000     0.000     5.713   232.970    0.2385    5.4700    5.3259    5.0782    0.3307    0.4282    0.4446    0.0000    0.0000    0.0000    0.0000
CORN    1 000010001    1    0   70.61900E-01    15.500     0.000     0.000     0.000     1.347     0.682   577.857   585.418     0.374     0.062     0.003     0.027     0.000     0.000   975.139  2000.204     0.000     0.000     0.000     0.093     0.000     0.920    96.391    16.650    21.100    12.200    10.966     2.877     0.000     0.000    11.337   191.113    0.8254   10.2337    9.4552    7.6436    0.3502    0.4400    0.4451    0.0001    0.0000    0.1975    0.0000
CORN    1 000010001    1    0   71.61900E-01    18.000     0.000     0.000     0.000     1.977     0.989   585.418   585.111     0.133     0.064     0.003     0.040     0.000     0.000   975.161  2000.205     9.890     9.055     0.000     0.097     0.000    10.475    96.757    10.300    15.000     5.600    10.902     9.596     0.793     0.052    11.057   189.777    1.3220   10.5421   10.0924    8.8734    0.3501    0.4400    0.4451    0.0001    0.0000    0.1500    0.4091
CORN    1 000010001    1    0   72.61900E-01     0.000     0.000     0.000     0.000     2.404     1.212   585.111   583.838     0.000     0.062     0.003     0.048     0.000     0.000   975.171  2000.206     0.000     0.765     0.000     0.096     0.000     1.892    96.742     6.950    11.100     2.800    10.288    14.657     0.000     0.000    10.357   216.156    1.0296   10.1245    9.9053    9.2674    0.3470    0.4399    0.4451    0.0001    0.0000    0.0000    0.0345
CORN    1 000010001    1    0   73.61900E-01     6.300     0.000     0.000     0.000     1.627     0.815   583.838   585.285     0.367     0.072     0.004     0.033     0.000     0.000   975.207  2000.207     0.000     0.065     0.000     0.097     0.000     1.305    96.683    12.750    17.200     8.300    10.887     8.774     0.000     0.000    10.983   201.281    1.1406   10.6755   10.4234    9.7555    0.3502    0.4400    0.4451    0.0001    0.0000    0.0923    0.0029
CORN    1 000010001    1    0   74.61900E-01     2.300     0.000     0.000     0.000     0.397     0.195   585.285   585.905     0.162     0.075     0.004     0.008     0.000     0.000   975.270  2000.209     0.000     0.005     0.000     0.097     0.000     1.112    96.750    12.750    17.200     8.300    11.557     4.872     0.000     0.000    11.660   208.726    1.0066   11.3251   11.0476   10.3154    0.3503    0.4400    0.4451    0.0000    0.0000    0.0335    0.0002
CORN    1 000010001    1    0   75.61900E-01    27.700     0.000     0.000     0.000     1.080     0.544   585.905   585.556     0.040     0.073     0.004     0.022     0.000     0.000   975.318  2000.210    19.394    17.757     0.000     0.102     0.000    19.397    96.779    13.850    18.300     9.400    12.431     4.409     1.695     0.302    12.550   187.316    1.5360   12.1575   11.8317   10.9765    0.3502    0.4400    0.4451    0.0001    0.0000    0.1589    0.7948
CORN    1 000010001    1    0   76.61900E-01     0.000     0.000     0.000     0.000     3.572     1.801   585.556   583.695     0.000     0.071     0.004     0.071     0.000     0.000   975.314  2000.212     0.000     1.500     0.000     0.101     0.000     2.799    96.763    13.300    17.200     9.400    12.606    13.496     0.000     0.000    12.698   214.700    1.1962   12.3948   12.1318   11.4124    0.3472    0.4399    0.4451    0.0001    0.0000    0.0000    0.0671
CORN    1 000010001    1    0   77.61900E-01     0.000     0.000     0.000     0.000     3.734     1.872   583.695   581.762     0.000     0.069     0.003     0.075     0.000     0.000   975.305  2000.213     0.000     0.127     0.000     0.100     0.000     1.160    96.676     9.450    15.600     3.300    12.129    15.073     0.000     0.000    12.172   220.785    0.9316   12.0294   11.8935   11.4881    0.3417    0.4372    0.4451    0.0000    0.0000    0.0000    0.0057
CORN    1 000010001    1    0   78.61900E-01     0.000     0.000     0.000     0.000     2.557     1.280   581.762   580.422     0.000     0.067     0.003     0.051     0.000     0.000   975.317  2000.214     0.000     0.011     0.000     0.099     0.000     0.838    96.584     7.750    14.400     1.100    11.441    14.621     0.000     0.000    11.440   227.105    0.7255   11.4358   11.4137   11.3099    0.3382    0.4341    0.4450    0.0000    0.0000    0.0000    0.0005
CORN    1 000010001    1    0   79.61900E-01     0.000     0.000     0.000     0.000     2.864     1.437   580.422   578.925     0.000     0.065     0.003     0.057     0.000     0.000   975.321  2000.215     0.000     0.001     0.000     0.098     0.000     0.666    96.519     5.550    11.100     0.000    10.560    15.558     0.000     0.000    10.516   231.489    0.5651   10.6491   10.7387   10.9313    0.3343    0.4307    0.4447    0.0000    0.0000    0.0000    0.0000
CORN    1 000010001    1    0   80.61900E-01     0.000     0.000     0.000     0.000     2.282     1.141   578.925   577.724     0.000     0.062     0.003     0.046     0.000     0.000   975.335  2000.216     0.000     0.000     0.000     0.098     0.000     0.540    96.445     1.150     5.600    -3.300     9.145    15.540     0.000     0.000     9.030   236.383    0.4401    9.3768    9.6303   10.2427    0.3314    0.4280    0.4444    0.0000    0.0000    0.0000    0.0000
CORN    1 000010001    1    0   81.61900E-01     0.000     0.000     0.000     0.000     3.099     1.549   577.724   576.114     0.000     0.061     0.003     0.062     0.000     0.000   975.330  2000.217     0.000     0.000     0.000     0.097     0.000     0.442    96.384     0.550     6.700    -5.600     7.927    16.552     0.000     0.000     7.774   240.310    0.3427    8.2346    8.5843    9.4687    0.3275    0.4245    0.4438    0.0000    0.0000    0.0000    0.0000
CORN    1 000010001    1    0   82.61900E-01     0.000     0.000     0.000     0.000     2.951     1.459   576.114   574.595     0.000     0.059     0.003     0.059     0.000     0.000   975.327  2000.218     0.000     0.000     0.000     0.096     0.000     0.365    96.301     2.200     9.400    -5.000     7.142    16.654     0.000     0.000     6.982   245.571    0.2669    7.4617    7.8346    8.8053    0.3239    0.4212    0.4432    0.0000    0.0000    0.0000    0.0000
CORN    1 000010001    1    0   83.61900E-01     0.000     0.000     0.000     0.000     2.849     1.365   574.595   573.169     0.000     0.057     0.003     0.057     0.000     0.000   975.324  2000.218     0.000     0.000     0.000     0.095     0.000     0.305    96.222     9.450    16.700     2.200     7.556    15.128     0.000     0.000     7.465   250.540    0.2079    7.7408    7.9749    8.6346    0.3205    0.4181    0.4427    0.0000    0.0000    0.0000    0.0000
CORN    1 000010001    1    0   84.61900E-01     0.000     0.000     0.000     0.000     4.224     1.941   573.169   571.168     0.000     0.055     0.003     0.084     0.000     0.000   975.292  2000.219     0.000     0.000     0.000     0.094     0.000     0.259    96.146    13.600    17.200    10.000     8.700    12.824     0.000     0.000     8.695   257.147    0.1619    8.7178    8.7656    8.9649    0.3157    0.4137    0.4418    0.0000    0.0000    0.0000    0.0000
CORN    1 000010001    1    0   85.61900E-01    14.200     0.000     0.000     0.000     0.887     0.455   571.168   584.853     0.000     0.053     0.003     0.018     0.000     0.000   975.324  2000.219     0.000     0.000     0.000     0.094     0.000     0.222    96.037     9.700    19.400     0.000     9.044     6.528     0.000     0.000     9.034   200.591    0.1261    9.0662    9.1021    9.2292    0.3498    0.4400    0.4451    0.0000    0.0000    0.0000    0.0000
CORN    1 000010001    1    0   86.61900E-01     0.000     0.000     0.000     0.000     2.292     1.144   584.853   583.649     0.000     0.051     0.003     0.046     0.000     0.000   975.327  2000.219     0.000     0.000     0.000     0.093     0.000     0.193    96.730     0.850     2.800    -1.100     7.873    16.298     0.000     0.000     7.782   202.275    0.0982    8.0747    8.3046    8.8865    0.3476    0.4399    0.4451    0.0000    0.0000    0.0000    0.0000
CORN    1 000010001    1    0   87.61900E-01     0.000     0.000     0.000     0.000     3.380     1.696   583.649   581.893     0.000     0.050     0.002     0.068     0.000     0.000   975.307  2000.220     0.000     0.000     0.000     0.092     0.000     0.171    96.674     6.650    13.300     0.000     7.723    15.985     0.000     0.000     7.649   206.211    0.0765    7.8896    8.0954    8.6596    0.3426    0.4387    0.4451    0.0000    0.0000    0.0000    0.0000
CORN    1 000010001    1    0   88.61900E-01    12.400     0.000     0.000     0.000     2.787     1.394   581.893   584.706     0.469     0.063     0.003     0.056     0.000     0.000   975.311  2000.221     1.797     1.646     0.000     0.096     0.000     2.352    96.590    14.200    22.800     5.600     8.914    13.150     0.100     0.035     8.926   179.465    0.6082    8.8997    8.9082    9.0032    0.3501    0.4400    0.4451    0.0000    0.0000    0.1562    0.0730
CORN    1 000010001    1    0   89.61900E-01     0.000     0.000     0.000     0.000     2.192     1.104   584.706   583.541     0.000     0.061     0.003     0.044     0.000     0.000   975.326  2000.221     0.000     0.139     0.000     0.095     0.000     0.710    96.724     3.050     7.800    -1.700     8.283    20.865     0.000     0.000     8.227   202.759    0.4737    8.4050    8.5463    8.9153    0.3467    0.4395    0.4451    0.0000    0.0000    0.0000    0.0062
CORN    1 000010001    1    0   90.61900E-01     0.000     0.000     0.000     0.000     3.581     1.802   583.541   581.678     0.000     0.059     0.003     0.072     0.000     0.000   975.310  2000.222     0.000     0.012     0.000     0.094     0.000     0.477    96.669     5.000    11.100    -1.100     7.722    12.828     0.000     0.000     7.642   206.568    0.3689    7.8975    8.1048    8.6522    0.3415    0.4367    0.4451    0.0000    0.0000    0.0000    0.0005
CORN    1 000010001    1    0   91.61900E-01     3.800     0.000     0.000     0.000     0.875     0.430   581.678   584.988     0.000     0.057     0.003     0.017     0.000     0.000   975.347  2000.223     0.000     0.001     0.000     0.094     0.000     0.384    96.580    12.500    20.000     5.000     8.827     9.741     0.000     0.000     8.835   200.233    0.2873    8.8210    8.8375    8.9481    0.3494    0.4400    0.4451    0.0000    0.0000    0.0000    0.0000
CORN    1 000010001    1    0   92.61900E-01    11.700     0.000     0.000     0.000     1.159     0.569   584.988   585.531     0.186     0.061     0.003     0.023     0.000     0.000   975.382  2000.223     4.259     3.899     0.000     0.097     0.000     4.793    96.737    12.250    18.900     5.600     9.634     9.809     0.296     0.010     9.665   178.728    0.7942    9.5701    9.5091    9.3950    0.3503    0.4400    0.4451    0.0000    0.0000    0.1267    0.1734
CORN    1 000010001    1    0   93.61900E-01     1.300     0.000     0.000     0.000     1.530     0.766   585.531   585.334     0.117     0.063     0.003     0.031     0.000     0.000   975.412  2000.224     0.000     0.329     0.000     0.096     0.000     1.098    96.762     7.250    13.900     0.600     8.970     6.895     0.000     0.000     8.933   196.252    0.6703    9.0492    9.1364    9.3512    0.3502    0.4400    0.4451    0.0000    0.0000    0.0172    0.0146
CORN    1 000010001    1    0   94.61900E-01     1.500     0.000     0.000     0.000     0.322     0.158   585.334   585.942     0.152     0.066     0.003     0.006     0.000     0.000   975.468  2000.225     0.000     0.028     0.000     0.096     0.000     0.697    96.753     0.850     6.700    -5.000     6.465     6.205     0.000     0.000     6.287   196.353    0.5709    6.8563    7.2947    8.3764    0.3503    0.4400    0.4451    0.0000    0.0000    0.0184    0.0012
CORN    1 000010001    1    0   95.61900E-01     0.000     0.000     0.000     0.000     3.294     1.647   585.942   584.234     0.000     0.064     0.003     0.066     0.000     0.000   975.463  2000.226     0.000     0.002     0.000     0.095     0.000     0.545    96.781     4.750    12.800    -3.300     6.247    17.766     0.000     0.000     6.126   198.717    0.4446    6.5285    6.8793    7.8376    0.3492    0.4399    0.4451    0.0000    0.0000    0.0000    0.0001
CORN    1 000010001    1    0   96.61900E-01     0.000     0.000     0.000     0.000     2.378     1.188   584.234   582.985     0.000     0.062     0.003     0.048     0.000     0.000   975.474  2000.227     0.000     0.000     0.000     0.095     0.000     0.443    96.702     2.200    10.000    -5.600     5.801    19.795     0.000     0.000     5.671   204.302    0.3463    6.0902    6.4445    7.4102    0.3457    0.4388    0.4451    0.0000    0.0000    0.0000    0.0000
CORN    1 000010001    1    0   97.61900E-01     0.000     0.000     0.000     0.000     2.421     1.208   582.985   581.716     0.000     0.060     0.003     0.048     0.000     0.000   975.483  2000.227     0.000     0.000     0.000     0.094     0.000     0.366    96.643     0.300     5.000    -4.400     5.226    21.405     0.000     0.000     5.081   208.385    0.2697    5.5437    5.9288    6.9713    0.3422    0.4364    0.4451    0.0000    0.0000    0.0000    0.0000
CORN    1 000010001    1    0   98.61900E-01    25.900     0.000     0.000     0.000     2.022     1.008   581.716   585.092     0.486     0.073     0.004     0.040     0.000     0.000   975.512  2000.229    12.867    11.780     0.000     0.098     0.000    12.851    96.582    10.550    18.300     2.800     6.087    16.028     0.757     0.253     6.022   172.318    0.9702    6.2374    6.4441    7.0709    0.3502    0.4400    0.4451    0.0000    0.0000    0.1959    0.5257
CORN    1 000010001    1    0   99.61900E-01     2.800     0.000     0.000     0.000     0.993     0.488   585.092   585.612     0.201     0.078     0.004     0.020     0.000     0.000   975.566  2000.230     0.000     0.995     0.000     0.099     0.000     1.995    96.741     1.950     6.100    -2.200     5.276    10.720     0.000     0.000     5.153   193.155    0.8991    5.5528    5.8859    6.7815    0.3503    0.4400    0.4451    0.0000    0.0000    0.0400    0.0444
CORN    1 000010001    1    0  100.61900E-01     3.800     0.000     0.000     0.000     0.275     0.135   585.612   585.965     0.100     0.078     0.004     0.006     0.000     0.000   975.635  2000.232     0.000     0.084     0.000     0.100     0.000     1.182    96.766    -0.550     3.900    -5.000     3.477     6.064     0.000     0.000     3.270   188.010    0.9959    3.9431    4.4933    5.9315    0.3503    0.4400    0.4451    0.0001    0.0000    0.0663    0.0038
CORN    1 000010001    1    0  101.61900E-01     0.500     0.000     0.000     0.000     0.118     0.058   585.965   586.042     0.028     0.077     0.004     0.002     0.000     0.000   975.705  2000.233     0.000     0.007     0.000     0.099     0.000     0.910    96.782    -0.850     2.200    -3.900     1.388     2.726     0.000     0.000     1.115   197.132    0.8014    2.0110    2.7538    4.7079    0.3503    0.4400    0.4451    0.0001    0.0000    0.0077    0.0003
CORN    1 000010001    1    0  102.61900E-01     3.300     0.000     0.000     0.000     0.224     0.110   586.042   585.990     0.012     0.075     0.004     0.004     0.000     0.000   975.772  2000.235     0.189     0.174     0.000     0.100     0.000     1.180    96.785     6.650    12.200     1.100     3.971     3.005     0.005     0.002     3.925   188.552    0.9039    4.1017    4.3244    5.0935    0.3503    0.4400    0.4451    0.0001    0.0000    0.0591    0.0077
CORN    1 000010001    1    0  103.61900E-01    19.800     0.000     0.000     0.000     0.626     0.307   585.990   585.793     0.023     0.073     0.004     0.013     0.000     0.000   975.828  2000.236    12.220    11.203     0.000     0.104     0.000    12.707    96.783     5.000    11.700    -1.700     4.426     4.626     0.629     0.287     4.362   174.572    1.3974    4.5783    4.7859    5.4149    0.3503    0.4400    0.4451    0.0003    0.0000    0.1441    0.4944
CORN    1 000010001    1    0  104.61900E-01     0.000     0.000     0.000     0.000     3.879     1.935   585.793   583.797     0.000     0.071     0.004     0.078     0.000     0.000   975.818  2000.237     0.000     0.946     0.000     0.103     0.000     2.140    96.774     5.000     9.400     0.600     4.576    17.354     0.000     0.000     4.505   199.205    1.0883    4.7422    4.9587    5.5876    0.3482    0.4399    0.4451    0.0002    0.0000    0.0000    0.0418
CORN    1 000010001    1    0  105.61900E-01     0.000     0.000     0.000     0.000     3.737     1.864   583.797   581.873     0.000     0.068     0.003     0.075     0.000     0.000   975.808  2000.238     0.000     0.080     0.000     0.102     0.000     1.032    96.681     7.200    12.200     2.200     4.990    19.363     0.000     0.000     4.934   205.729    0.8476    5.1190    5.2915    5.8090    0.3427    0.4372    0.4451    0.0002    0.0000    0.0000    0.0035
CORN    1 000010001    1    0  106.61900E-01     0.000     0.000     0.000     0.000     5.157     2.588   581.873   579.224     0.000     0.066     0.003     0.103     0.000     0.000   975.768  2000.239     0.000     0.007     0.000     0.101     0.000     0.771    96.589    10.000    15.600     4.400     5.693    20.056     0.000     0.000     5.666   212.023    0.6601    5.7564    5.8530    6.1739    0.3354    0.4309    0.4449    0.0001    0.0000    0.0000    0.0003
CORN    1 000010001    1    0  107.61900E-01     0.000     0.000     0.000     0.000     5.975     2.985   579.224   576.178     0.000     0.064     0.003     0.119     0.000     0.000   975.709  2000.240     0.000     0.001     0.000     0.101     0.000     0.618    96.459    15.300    21.700     8.900     7.093    17.821     0.000     0.000     7.135   220.682    0.5141    7.0164    6.9550    6.8785    0.3276    0.4240    0.4441    0.0001    0.0000    0.0000    0.0000
CORN    1 000010001    1    0  108.61900E-01     0.000     0.000     0.000     0.000     4.978     2.434   576.178   573.685     0.000     0.062     0.003     0.100     0.000     0.000   975.668  2000.240     0.000     0.000     0.000     0.100     0.000     0.503    96.305    16.350    23.300     9.400     8.470    17.514     0.000     0.000     8.559   230.640    0.4004    8.3000    8.1253    7.7408    0.3216    0.4185    0.4430    0.0001    0.0000    0.0000    0.0000
CORN    1 000010001    1    0  109.61900E-01     0.000     0.000     0.000     0.000     5.748     2.628   573.685   570.997     0.000     0.060     0.003     0.115     0.000     0.000   975.611  2000.241     0.000     0.000     0.000     0.099     0.000     0.413    96.174    17.500    25.600     9.400     9.713    19.527     0.000     0.000     9.835   238.794    0.3118    9.4819    9.2316    8.6353    0.3150    0.4125    0.4419    0.0001    0.0000    0.0000    0.0000
CORN    1 000010001    1    0  110.61900E-01     0.000     0.000     0.000     0.000     6.867     2.912   570.997   568.024     0.000     0.058     0.003     0.137     0.000     0.000   975.529  2000.241     0.000     0.000     0.000     0.098     0.000     0.343    96.028    19.450    27.200    11.700    11.066    18.993     0.000     0.000    11.234   247.582    0.2428   10.7594   10.4219    9.5977    0.3076    0.4055    0.4405    0.0000    0.0000    0.0000    0.0000
CORN    1 000010001    1    0  111.61900E-01     0.000     0.000     0.000     0.000     3.960     1.543   568.024   566.421     0.000     0.056     0.003     0.079     0.000     0.000   975.503  2000.242     0.000     0.000     0.000     0.097     0.000     0.289    95.861    14.150    18.900     9.400    11.535    23.659     0.000     0.000    11.674   257.301    0.1891   11.2844   10.9983   10.2686    0.3036    0.4017    0.4397    0.0000    0.0000    0.0000    0.0000
CORN    1 000010001    1    0  112.61900E-01     0.000     0.000     0.000     0.000     4.928     1.818   566.421   564.543     0.000     0.055     0.003     0.099     0.000     0.000   975.456  2000.242     0.000     0.000     0.000     0.096     0.000     0.246    95.768    17.500    24.400    10.600    12.370    20.120     0.000     0.000    12.534   264.735    0.1473   12.0820   11.7590   10.9476    0.2988    0.3971    0.4388    0.0000    0.0000    0.0000    0.0000
CORN    1 000010001    1    0  113.61900E-01     2.500     0.000     0.000     0.000     0.915     0.320   564.543   566.662     0.000     0.053     0.003     0.018     0.000     0.000   975.488  2000.242     0.000     0.000     0.000     0.096     0.000     0.213    95.658    14.700    17.200    12.200    12.921     9.761     0.000     0.000    13.079   261.849    0.1147   12.6432   12.3285   11.5280    0.2980    0.3963    0.4429    0.0000    0.0000    0.0000    0.0000
CORN    1 000010001    1    0  114.61900E-01     1.000     0.000     0.000     0.000     0.382     0.133   566.662   567.469     0.000     0.051     0.003     0.008     0.000     0.000   975.529  2000.242     0.000     0.000     0.000     0.095     0.000     0.187    95.782    10.850    17.800     3.900    12.002     3.494     0.000     0.000    12.037   258.976    0.0893   11.9310   11.8287   11.5128    0.2977    0.3959    0.4446    0.0000    0.0000    0.0000    0.0000
CORN    1 000010001    1    0  115.61900E-01     0.000     0.000     0.000     0.000     3.068     1.110   567.469   566.299     0.000     0.050     0.002     0.061     0.000     0.000   975.515  2000.242     0.000     0.000     0.000     0.094     0.000     0.166    95.829    10.250    14.400     6.100    11.799    15.906     0.000     0.000    11.828   259.873    0.0696   11.7447   11.6758   11.4785    0.2948    0.3932    0.4439    0.0000    0.0000    0.0000    0.0000
CORN    1 000010001    1    0  116.61900E-01     0.000     0.000     0.000     0.000     6.559     2.283   566.299   563.956     0.000     0.048     0.002     0.131     0.000     0.000   975.429  2000.242     0.000     0.000     0.000     0.093     0.000     0.150    95.761    13.900    21.700     6.100    12.173    16.077     0.000     0.000    12.236   265.296    0.0542   12.0642   11.9438   11.6441    0.2891    0.3875    0.4426    0.0000    0.0000    0.0000    0.0000
CORN    1 000010001    1    0  117.61900E-01     0.000     0.000     0.000     0.000     5.449     1.825   563.956   562.072     0.000     0.046     0.002     0.109     0.000     0.000   975.364  2000.242     0.000     0.000     0.000     0.093     0.000     0.137    95.623    21.150    26.700    15.600    13.401    19.402     0.000     0.000    13.552   276.158    0.0422   13.1414   12.8662   12.2112    0.2845    0.3829    0.4415    0.0000    0.0000    0.0000    0.0000
CORN    1 000010001    1    0  118.61900E-01     0.000     0.000     0.000     0.000     3.999     1.297   562.072   560.715     0.000     0.045     0.002     0.080     0.000     0.000   975.327  2000.242     0.000     0.000     0.000     0.092     0.000     0.127    95.508    15.800    27.200     4.400    13.802    21.872     0.000     0.000    13.936   284.895    0.0329   13.5689   13.3087   12.6580    0.2813    0.3796    0.4407    0.0000    0.0000    0.0000    0.0000
CORN    1 000010001    1    0  119.61900E-01     2.500     0.000     0.000     0.000     1.095     0.342   560.715   562.814     0.000     0.044     0.002     0.022     0.000     0.000   975.346  2000.242     0.000     0.000     0.000     0.091     0.000     0.119    95.425     9.700    15.000     4.400    13.248    15.184     0.000     0.000    13.300   279.595    0.0256   13.1532   13.0326   12.6934    0.2805    0.3788    0.4448    0.0000    0.0000    0.0000    0.0000
CORN    1 000010001    1    0  120.61900E-01     0.500     0.000     0.000     0.000     0.894     0.279   562.814   562.975     0.000     0.042     0.002     0.018     0.000     0.000   975.368  2000.241     0.000     0.000     0.000     0.091     0.000     0.113    95.554    11.400    15.600     7.200    12.765     7.459     0.000     0.000    12.778   279.136    0.0199   12.7383   12.6968   12.5610    0.2798    0.3813    0.4449    0.0000    0.0000    0.0000    0.0000
CORN    1 000010001    1    0  121.61900E-01     0.000     0.000     0.000     0.000     4.406     1.407   562.975   561.509     0.000     0.041     0.002     0.088     0.000     0.000   975.319  2000.241     0.000     0.000     0.000     0.090     0.000     0.108    95.564     9.700    14.400     5.000    12.510    21.406     0.000     0.000    12.514   280.705    0.0155   12.5024   12.4869   12.4295    0.2765    0.3778    0.4440    0.0000    0.0000    0.0000    0.0000
CORN    1 000010001    1    0  122.61900E-01     9.400     0.000     0.000     0.000     2.315     0.875   561.509   569.975     0.000     0.040     0.002     0.046     0.000     0.000   975.310  2000.240     0.000     0.000     0.000     0.089     0.000     0.104    95.474    11.950    15.000     8.900    12.462    12.523     0.000     0.000    12.471   243.923    0.0121   12.4455   12.4251   12.3672    0.3008    0.4371    0.4446    0.0000    0.0000    0.0000    0.0000
CORN    1 000010001    1    0  123.61900E-01    22.600     0.000     0.000     0.000     3.114     1.562   569.975   584.538     1.591     0.089     0.004     0.062     0.000     0.000   975.332  2000.242     0.000     0.000     0.000     0.093     0.000     0.554    95.971    15.550    22.800     8.300    13.158    10.038     0.000     0.000    13.235   178.870    0.4590   13.0322   12.9072   12.6096    0.3500    0.4399    0.4451    0.0000    0.0000    0.2563    0.0000
CORN    1 000010001    1    0  124.61900E-01     0.300     0.000     0.000     0.000     1.027     0.504   584.538   584.273     0.000     0.086     0.004     0.021     0.000     0.000   975.393  2000.244     0.000     0.000     0.000     0.092     0.000     0.452    96.716     9.450    12.200     6.700    12.502    12.030     0.000     0.000    12.494   198.385    0.3575   12.5151   12.5176   12.4905    0.3488    0.4398    0.4451    0.0000    0.0000    0.0000    0.0000
CORN    1 000010001    1    0  125.61900E-01     0.000     0.000     0.000     0.000     4.373     2.185   584.273   582.027     0.000     0.083     0.004     0.087     0.000     0.000   975.385  2000.246     0.000     0.000     0.000     0.091     0.000     0.372    96.703    10.000    14.400     5.600    12.258    21.423     0.000     0.000    12.247   200.232    0.2784   12.2804   12.3027   12.3471    0.3423    0.4377    0.4451    0.0000    0.0000    0.0000    0.0000
CORN    1 000010001    1    0  126.61900E-01     1.000     0.000     0.000     0.000     0.772     0.379   582.027   582.588     0.000     0.081     0.004     0.015     0.000     0.000   975.446  2000.247     0.000     0.000     0.000     0.091     0.000     0.310    96.597     8.600    13.900     3.300    11.410     8.984     0.000     0.000    11.352   204.303    0.2168   11.5280   11.6565   11.9619    0.3487    0.4391    0.4451    0.0000    0.0000    0.0000    0.0000
CORN    1 000010001    1    0  127.61900E-01     0.500     0.000     0.000     0.000     0.918     0.451   582.588   582.577     0.000     0.078     0.004     0.018     0.000     0.000   975.502  2000.249     0.000     0.000     0.000     0.090     0.000     0.261    96.624     7.750    16.100    -0.600    10.710    11.342     0.000     0.000    10.633   204.106    0.1689   10.8692   11.0511   11.5130    0.3490    0.4389    0.4451    0.0000    0.0000    0.0048    0.0000
CORN    1 000010001    1    0  128.61900E-01     0.000     0.000     0.000     0.000     4.001     1.995   582.577   580.521     0.000     0.076     0.004     0.080     0.000     0.000   975.494  2000.250     0.000     0.000     0.000     0.089     0.000     0.223    96.623    13.900    20.600     7.200    11.119    24.003     0.000     0.000    11.097   205.777    0.1315   11.1682   11.2382   11.4528    0.3430    0.4340    0.4450    0.0000    0.0000    0.0000    0.0000
CORN    1 000010001    1    0  129.61900E-01     0.000     0.000     0.000     0.000     6.399     3.207   580.521   577.254     0.000     0.073     0.004     0.128     0.000     0.000   975.435  2000.251     0.000     0.000     0.000     0.089     0.000     0.194    96.524    14.150    23.900     4.400    11.554    20.680     0.000     0.000    11.559   212.498    0.1024   11.5475   11.5493   11.5811    0.3340    0.4264    0.4444    0.0000    0.0000    0.0000    0.0000
CORN    1 000010001    1    0  130.61900E-01     0.000     0.000     0.000     0.000     3.914     1.956   577.254   575.238     0.000     0.071     0.004     0.078     0.000     0.000   975.424  2000.252     0.000     0.000     0.000     0.088     0.000     0.170    96.360    12.500    18.900     6.100    11.759    23.623     0.000     0.000    11.768   223.180    0.0798   11.7440   11.7303   11.7078    0.3289    0.4220    0.4436    0.0000    0.0000    0.0000    0.0000
CORN    1 000010001    1    0  131.61900E-01     5.800     0.000     0.000     0.000     2.675     1.332   575.238   579.646     0.000     0.069     0.003     0.053     0.000     0.000   975.436  2000.253     0.000     0.000     0.000     0.087     0.000     0.152    96.256    10.800    12.200     9.400    11.668    14.525     0.000     0.000    11.661   210.806    0.0621   11.6795   11.6923   11.7248    0.3463    0.4367    0.4448    0.0000    0.0000    0.0000    0.0000
CORN    1 000010001    1    0  132.61900E-01    18.500     0.000     0.000     0.000     2.769     1.360   579.646   584.740     0.826     0.093     0.005     0.055     0.000     0.000   975.468  2000.255     3.899     3.569     0.000     0.092     0.000     4.392    96.480    16.650    21.100    12.200    12.298    24.898     0.098     0.208    12.339   171.075    0.7287   12.2238   12.1469   11.9693    0.3502    0.4400    0.4451    0.0000    0.0000    0.2131    0.1626
CORN    1 000010001    1    0  133.61900E-01     0.000     0.000     0.000     0.000     6.287     3.138   584.740   581.542     0.000     0.090     0.004     0.126     0.000     0.000   975.428  2000.257     0.000     0.301     0.000     0.091     0.000     0.963    96.725    19.150    23.300    15.000    13.067    25.686     0.000     0.000    13.131   198.704    0.5675   12.9278   12.7708   12.3801    0.3407    0.4388    0.4451    0.0000    0.0000    0.0000    0.0137
CORN    1 000010001    1    0  134.61900E-01    17.800     0.000     0.000     0.000     1.720     0.845   581.542   585.255     0.643     0.107     0.005     0.034     0.000     0.000   975.495  2000.259     5.092     4.688     0.000     0.095     0.000     5.926    96.573    17.500    25.000    10.000    13.834    14.614     0.241     0.335    13.925   170.448    1.1408   13.6435   13.4253   12.8685    0.3502    0.4400    0.4451    0.0001    0.0000    0.1886    0.2132
SOYB    1 000010001    1    0  135.61900E-01     5.800     0.000     0.000     0.000     2.175     1.085   585.255   585.015     0.173     0.109     0.005     0.043     0.000     0.000   975.556  2000.262     0.309     0.679     0.000     0.097     0.000     2.081    96.749    12.750    18.300     7.200    13.422     4.531     0.000     0.017    13.452   180.065    1.3027   13.3501   13.2505   12.9527    0.3502    0.4400    0.4451    0.0001    0.0000    0.0580    0.0257
SOYB    1 000010001    1    0  136.61900E-01     0.000     0.000     0.000     0.000     3.235     1.638   585.015   583.317     0.000     0.106     0.005     0.065     0.000     0.000   975.592  2000.265     0.000     0.057     0.000     0.097     0.000     1.171    96.738     6.650    10.000     3.300    12.695    21.819     0.000     0.000    12.682   197.805    1.0145   12.7194   12.7333   12.7274    0.3456    0.4400    0.4451    0.0001    0.0000    0.0000    0.0022
SOYB    1 000010001    1    0  137.61900E-01     0.000     0.000     0.000     0.000     2.993     1.544   583.317   581.712     0.000     0.103     0.005     0.060     0.000     0.000   975.629  2000.267     0.000     0.005     0.000     0.096     0.000     0.893    96.658     5.550    11.700    -0.600    11.977    23.214     0.000     0.000    11.936   203.358    0.7901   12.0635   12.1547   12.3615    0.3414    0.4373    0.4451    0.0000    0.0000    0.0000    0.0002
SOYB    1 000010001    1    0  138.61900E-01     0.000     0.000     0.000     0.000     4.777     2.448   581.712   579.204     0.000     0.099     0.005     0.096     0.000     0.000   975.628  2000.270     0.000     0.000     0.000     0.095     0.000     0.713    96.582    11.100    17.200     5.000    11.934    21.897     0.000     0.000    11.913   208.604    0.6153   11.9803   12.0358   12.1817    0.3349    0.4316    0.4449    0.0000    0.0000    0.0000    0.0000
SOYB    1 000010001    1    0  139.61900E-01     4.300     0.000     0.000     0.000     0.836     0.437   579.204   583.006     0.000     0.096     0.005     0.017     0.000     0.000   975.703  2000.271     0.000     0.000     0.000     0.094     0.000     0.576    96.458    11.350    14.400     8.300    11.786     6.809     0.000     0.000    11.762   202.746    0.4792   11.8360   11.8936   12.0424    0.3491    0.4392    0.4451    0.0000    0.0000    0.0000    0.0000
SOYB    1 000010001    1    0  140.61900E-01     0.000     0.000     0.000     0.000     3.656     1.826   583.006   581.119     0.000     0.093     0.005     0.073     0.000     0.000   975.718  2000.273     0.000     0.000     0.000     0.094     0.000     0.470    96.644    11.100    18.300     3.900    11.780    20.678     0.000     0.000    11.764   204.373    0.3732   11.8135   11.8549   11.9690    0.3437    0.4350    0.4451    0.0000    0.0000    0.0000    0.0000
SOYB    1 000010001    1    0  141.61900E-01     0.000     0.000     0.000     0.000     6.801     3.348   581.119   577.711     0.000     0.090     0.005     0.136     0.000     0.000   975.667  2000.275     0.000     0.000     0.000     0.093     0.000     0.386    96.553    15.300    20.000    10.600    12.247    23.804     0.000     0.000    12.267   210.542    0.2907   12.2111   12.1765   12.1069    0.3343    0.4270    0.4446    0.0000    0.0000    0.0000    0.0000
SOYB    1 000010001    1    0  142.61900E-01     3.600     0.000     0.000     0.000     1.939     0.957   577.711   580.293     0.000     0.087     0.004     0.039     0.000     0.000   975.711  2000.277     0.000     0.000     0.000     0.092     0.000     0.321    96.383    16.150    20.600    11.700    12.945    14.622     0.000     0.000    13.005   209.914    0.2264   12.8360   12.7172   12.4321    0.3474    0.4376    0.4449    0.0000    0.0000    0.0000    0.0000
SOYB    1 000010001    1    0  143.61900E-01     0.500     0.000     0.000     0.000     2.179     1.076   580.293   579.657     0.000     0.084     0.004     0.044     0.000     0.000   975.748  2000.278     0.000     0.000     0.000     0.091     0.000     0.271    96.512    12.200    18.300     6.100    12.800     8.578     0.000     0.000    12.823   211.607    0.1763   12.7547   12.6962   12.5289    0.3457    0.4373    0.4448    0.0000    0.0000    0.0000    0.0000
SOYB    1 000010001    1    0  144.61900E-01     0.000     0.000     0.000     0.000     4.113     2.045   579.657   577.553     0.000     0.082     0.004     0.082     0.000     0.000   975.744  2000.279     0.000     0.000     0.000     0.091     0.000     0.231    96.481    14.450    22.200     6.700    13.097    21.113     0.000     0.000    13.141   215.321    0.1373   13.0178   12.9267   12.6894    0.3399    0.4324    0.4442    0.0000    0.0000    0.0000    0.0000
SOYB    1 000010001    1    0  145.61900E-01     0.000     0.000     0.000     0.000     7.426     3.513   577.553   573.980     0.000     0.079     0.004     0.149     0.000     0.000   975.670  2000.281     0.000     0.000     0.000     0.090     0.000     0.200    96.375    16.950    23.900    10.000    13.635    23.238     0.000     0.000    13.710   222.202    0.1069   13.5034   13.3551   12.9756    0.3299    0.4239    0.4427    0.0000    0.0000    0.0000    0.0000
SOYB    1 000010001    1    0  146.61900E-01     0.000     0.000     0.000     0.000     4.826     2.103   573.980   571.817     0.000     0.077     0.004     0.097     0.000     0.000   975.647  2000.281     0.000     0.000     0.000     0.090     0.000     0.176    96.189    20.300    26.700    13.900    14.564    19.989     0.000     0.000    14.693   233.883    0.0833   14.3421   14.0948   13.4698    0.3241    0.4186    0.4418    0.0000    0.0000    0.0000    0.0000
SOYB    1 000010001    1    0  147.61900E-01     0.000     0.000     0.000     0.000     7.671     3.189   571.817   568.568     0.000     0.074     0.004     0.153     0.000     0.000   975.564  2000.282     0.000     0.000     0.000     0.089     0.000     0.157    96.073    22.800    27.800    17.800    15.604    21.981     0.000     0.000    15.777   240.955    0.0649   15.3026   14.9656   14.1071    0.3152    0.4107    0.4403    0.0000    0.0000    0.0000    0.0000
SOYB    1 000010001    1    0  148.61900E-01     0.000     0.000     0.000     0.000     9.883     3.781   568.568   564.727     0.000     0.072     0.004     0.198     0.000     0.000   975.434  2000.283     0.000     0.000     0.000     0.088     0.000     0.142    95.892    21.400    26.700    16.100    16.338    23.877     0.000     0.000    16.524   251.579    0.0505   16.0142   15.6478   14.7002    0.3049    0.4010    0.4384    0.0000    0.0000    0.0000    0.0000
SOYB    1 000010001    1    0  149.61900E-01     0.000     0.000     0.000     0.000    10.128     3.593   564.727   561.074     0.000     0.070     0.003     0.203     0.000     0.000   975.298  2000.283     0.000     0.000     0.000     0.088     0.000     0.130    95.669    23.900    30.000    17.800    17.209    25.809     0.000     0.000    17.428   269.387    0.0393   16.8313   16.4096   15.3286    0.2952    0.3918    0.4365    0.0000    0.0000    0.0000    0.0000
SOYB    1 000010001    1    0  150.61900E-01     0.000     0.000     0.000     0.000     5.922     2.019   561.074   558.996     0.000     0.067     0.003     0.118     0.000     0.000   975.243  2000.284     0.000     0.000     0.000     0.087     0.000     0.121    95.447    23.300    28.300    18.300    17.977    23.741     0.000     0.000    18.217   286.320    0.0306   17.5657   17.1091   15.9406    0.2900    0.3868    0.4354    0.0000    0.0000    0.0000    0.0000
SOYB    1 000010001    1    0  151.61900E-01    22.100     0.000     0.000     0.000     2.287     1.168   558.996   579.869     0.000     0.065     0.003     0.046     0.000     0.000   975.260  2000.284     0.000     0.000     0.000     0.087     0.000     0.113    95.317    22.200    29.400    15.000    18.672    15.960     0.000     0.000    18.926   193.495    0.0239   18.2361   17.7550   16.5237    0.3468    0.4372    0.4449    0.0000    0.0000    0.0000    0.0000
SOYB    1 000010001    1    0  152.61900E-01     0.000     0.000     0.000     0.000     6.178     3.122   579.869   576.687     0.000     0.063     0.003     0.124     0.000     0.000   975.196  2000.285     0.000     0.000     0.000     0.086     0.000     0.107    96.492    21.950    28.900    15.000    19.188    21.239     0.000     0.000    19.402   197.507    0.0186   18.8030   18.3380   17.0743    0.3378    0.4298    0.4439    0.0000    0.0000    0.0000    0.0000
SOYB    1 000010001    1    0  153.61900E-01     0.000     0.000     0.000     0.000     8.197     3.984   576.687   572.644     0.000     0.061     0.003     0.164     0.000     0.000   975.090  2000.285     0.000     0.000     0.000     0.085     0.000     0.103    96.331    24.150    30.000    18.300    19.802    26.545     0.000     0.000    20.029   207.909    0.0145   19.3960   18.9117   17.6037    0.3267    0.4205    0.4423    0.0000    0.0000    0.0000    0.0000
SOYB    1 000010001    1    0  154.61900E-01     0.000     0.000     0.000     0.000     8.410     3.688   572.644   568.897     0.000     0.059     0.003     0.168     0.000     0.000   974.979  2000.285     0.000     0.000     0.000     0.085     0.000     0.099    96.118    23.600    30.000    17.200    20.309    24.691     0.000     0.000    20.542   221.130    0.0113   19.8938   19.4026   18.0821    0.3164    0.4116    0.4407    0.0000    0.0000    0.0000    0.0000
SOYB    1 000010001    1    0  155.61900E-01     0.000     0.000     0.000     0.000     7.863     3.200   568.897   565.638     0.000     0.057     0.003     0.157     0.000     0.000   974.876  2000.285     0.000     0.000     0.000     0.084     0.000     0.096    95.911    23.050    28.300    17.800    20.704    25.571     0.000     0.000    20.939   233.381    0.0088   20.2879   19.8001   18.4938    0.3075    0.4038    0.4391    0.0000    0.0000    0.0000    0.0000
SOYB    1 000010001    1    0  156.61900E-01     0.000     0.000     0.000     0.000     8.356     3.202   565.638   562.377     0.000     0.056     0.003     0.167     0.000     0.000   974.761  2000.284     0.000     0.000     0.000     0.084     0.000     0.093    95.723    23.050    28.900    17.200    21.052    26.006     0.000     0.000    21.290   244.037    0.0068   20.6338   20.1482   18.8561    0.2987    0.3960    0.4376    0.0000    0.0000    0.0000    0.0000
SOYB    1 000010001    1    0  157.61900E-01     7.400     0.000     0.000     0.000     2.292     0.922   562.377   568.795     0.000     0.054     0.003     0.046     0.000     0.000   974.767  2000.284     0.000     0.000     0.000     0.083     0.000     0.091    95.527    20.300    23.900    16.700    20.904    11.001     0.000     0.000    21.106   230.504    0.0053   20.5490   20.1322   19.0075    0.2963    0.4244    0.4447    0.0000    0.0000    0.0000    0.0000
SOYB    1 000010001    1    0  158.61900E-01     5.600     0.000     0.000     0.000     2.120     1.011   568.795   573.325     0.000     0.052     0.003     0.042     0.000     0.000   974.774  2000.284     0.000     0.000     0.000     0.083     0.000     0.090    95.905    20.550    25.000    16.100    20.829    10.760     0.000     0.000    21.018   215.403    0.0041   20.4987   20.1184   19.0919    0.3306    0.4373    0.4447    0.0000    0.0000    0.0000    0.0000
SOYB    1 000010001    1    0  159.61900E-01     0.000     0.000     0.000     0.000     6.644     2.937   573.325   570.329     0.000     0.050     0.003     0.133     0.000     0.000   974.689  2000.283     0.000     0.000     0.000     0.082     0.000     0.088    96.154    20.300    28.900    11.700    20.890    26.226     0.000     0.000    21.082   218.902    0.0032   20.5691   20.2052   19.1972    0.3215    0.4293    0.4434    0.0000    0.0000    0.0000    0.0000
SOYB    1 000010001    1    0  160.61900E-01     0.000     0.000     0.000     0.000     4.604     2.012   570.329   568.258     0.000     0.049     0.002     0.092     0.000     0.000   974.643  2000.283     0.000     0.000     0.000     0.082     0.000     0.087    95.991    14.150    20.000     8.300    20.374    27.200     0.000     0.000    20.513   228.699    0.0025   20.1400   19.8653   19.0760    0.3153    0.4239    0.4424    0.0000    0.0000    0.0000    0.0000
SOYB    1 000010001    1    0  161.61900E-01     0.000     0.000     0.000     0.000     5.564     2.295   568.258   565.904     0.000     0.047     0.002     0.111     0.000     0.000   974.577  2000.282     0.000     0.000     0.000     0.081     0.000     0.086    95.874    14.450    22.200     6.700    19.914    26.999     0.000     0.000    20.027   235.468    0.0020   19.7249   19.5035   18.8637    0.3083    0.4177    0.4414    0.0000    0.0000    0.0000    0.0000
SOYB    1 000010001    1    0  162.61900E-01     0.000     0.000     0.000     0.000     6.053     2.391   565.904   563.455     0.000     0.046     0.002     0.121     0.000     0.000   974.499  2000.282     0.000     0.000     0.000     0.081     0.000     0.085    95.738    19.450    25.000    13.900    20.009    30.358     0.000     0.000    20.154   243.164    0.0015   19.7729   19.5143   18.8095    0.3007    0.4111    0.4402    0.0000    0.0000    0.0000    0.0000
SOYB    1 000010001    1    0  163.61900E-01     0.000     0.000     0.000     0.000     6.887     2.490   563.455   560.907     0.000     0.044     0.002     0.138     0.000     0.000   974.403  2000.281     0.000     0.000     0.000     0.080     0.000     0.084    95.593    22.750    26.100    19.400    20.394    27.151     0.000     0.000    20.579   251.172    0.0012   20.0924   19.7733   18.9315    0.2930    0.4041    0.4388    0.0000    0.0000    0.0000    0.0000
SOYB    1 000010001    1    0  164.61900E-01     0.000     0.000     0.000     0.000     6.961     2.607   560.907   558.242     0.000     0.043     0.002     0.139     0.000     0.000   974.305  2000.281     0.000     0.000     0.000     0.080     0.000     0.084    95.437    27.500    32.800    22.200    21.196    27.852     0.000     0.000    21.449   262.985    0.0009   20.7875   20.3668   19.2871    0.2843    0.3970    0.4375    0.0000    0.0000    0.0000    0.0000
SOYB    1 000010001    1    0  165.61900E-01     0.000     0.000     0.000     0.000     7.026     2.437   558.242   555.745     0.000     0.042     0.002     0.141     0.000     0.000   974.204  2000.280     0.000     0.000     0.000     0.079     0.000     0.083    95.269    19.450    28.900    10.000    21.150    27.445     0.000     0.000    21.366   275.342    0.0007   20.7995   20.4271   19.4424    0.2765    0.3902    0.4362    0.0000    0.0000    0.0000    0.0000
SOYB    1 000010001    1    0  166.61900E-01     0.000     0.000     0.000     0.000     5.183     1.799   555.745   553.888     0.000     0.040     0.002     0.104     0.000     0.000   974.138  2000.279     0.000     0.000     0.000     0.079     0.000     0.082    95.106    21.700    27.800    15.600    21.315    26.442     0.000     0.000    21.542   286.914    0.0006   20.9502   20.5700   19.5809    0.2706    0.3853    0.4352    0.0000    0.0000    0.0000    0.0000
[...]
CORN    1 000010001    1    0  324.61900E-01     0.300     0.000     0.000     0.000     0.875     0.385   564.069   563.935     0.000     0.000     0.000     0.017     0.000     0.000   898.882  2000.023     0.000     0.000     0.000     0.053     0.000     0.053    95.630     5.550    12.200    -1.100     6.349     3.198     0.000     0.000     6.134   176.650    0.0000    6.6694    6.9820    7.8188    0.3432    0.4341    0.4447    0.0000    0.0000    0.0000    0.0000
CORN    1 000010001    1    0  325.61900E-01    10.800     0.000     0.000     0.000     0.138     0.075   563.935   574.611     0.000     0.000     0.000     0.003     0.000     0.000   898.880  2000.022     0.000     0.000     0.000     0.053     0.000     0.053    95.621     5.000     7.800     2.200     5.865     3.622     0.000     0.000     5.640   142.756    0.0000    6.1987    6.5267    7.4111    0.3501    0.4399    0.4451    0.0000    0.0000    0.0000    0.0000
CORN    1 000010001    1    0  326.61900E-01     0.000     0.000     0.000     0.000     1.372     0.742   574.611   573.820     0.000     0.000     0.000     0.027     0.000     0.000   898.852  2000.022     0.000     0.000     0.000     0.052     0.000     0.053    96.223     6.350     9.400     3.300     5.970     8.131     0.000     0.000     5.868   143.803    0.0000    6.1825    6.4534    7.2151    0.3479    0.4388    0.4451    0.0000    0.0000    0.0000    0.0000
CORN    1 000010001    1    0  327.61900E-01     0.000     0.000     0.000     0.000     1.016     0.550   573.820   573.221     0.000     0.000     0.000     0.020     0.000     0.000   898.832  2000.022     0.000     0.000     0.000     0.052     0.000     0.053    96.181     3.900     7.800     0.000     5.436     7.208     0.000     0.000     5.305   150.487    0.0000    5.7002    6.0230    6.8988    0.3462    0.4377    0.4451    0.0000    0.0000    0.0000    0.0000
CORN    1 000010001    1    0  328.61900E-01     0.000     0.000     0.000     0.000     1.712     0.939   573.221   572.233     0.000     0.000     0.000     0.034     0.000     0.000   898.798  2000.021     0.000     0.000     0.000     0.052     0.000     0.053    96.149     4.150    10.000    -1.700     5.143     8.123     0.000     0.000     5.013   155.546    0.0000    5.4041    5.7277    6.6159    0.3435    0.4354    0.4451    0.0000    0.0000    0.0000    0.0000
CORN    1 000010001    1    0  329.61900E-01     0.000     0.000     0.000     0.000     1.128     0.610   572.233   571.573     0.000     0.000     0.000     0.023     0.000     0.000   898.775  2000.021     0.000     0.000     0.000     0.052     0.000     0.053    96.095    -1.100     2.200    -4.400     3.748     9.286     0.000     0.000     3.536   158.777    0.0000    4.1600    4.6478    5.9283    0.3418    0.4340    0.4451    0.0000    0.0000    0.0000    0.0000
CORN    1 000010001    1    0  330.61900E-01     4.000     0.000     0.000     0.000     0.116     0.063   571.573   575.461     0.000     0.000     0.000     0.002     0.000     0.000   898.773  2000.021     0.000     0.000     0.000     0.052     0.000     0.052    96.059     0.250     4.400    -3.900     2.616     5.338     0.000     0.000     2.374   147.854    0.0000    3.0855    3.6491    5.1475    0.3501    0.4400    0.4451    0.0000    0.0000    0.0000    0.0000
CORN    1 000010001    1    0  331.61900E-01     0.000     0.000     0.000     0.000     2.487     1.360   575.461   574.052     0.000     0.000     0.000     0.050     0.000     0.000   898.723  2000.021     0.000     0.000     0.000     0.052     0.000     0.052    96.267     1.150     5.600    -3.300     2.183     6.112     0.000     0.000     1.996   148.800    0.0000    2.6061    3.1325    4.5797    0.3460    0.4398    0.4451    0.0000    0.0000    0.0000    0.0000
CORN    1 000010001    1    0  332.61900E-01     0.000     0.000     0.000     0.000     0.859     0.465   574.052   573.538     0.000     0.000     0.000     0.017     0.000     0.000   898.706  2000.020     0.000     0.000     0.000     0.052     0.000     0.052    96.193    -5.250    -1.100    -9.400     0.443     8.798     0.000     0.000     0.172   160.703    0.0000    1.0336    1.7395    3.6123    0.3447    0.4390    0.4451    0.0000    0.0000    0.0000    0.0000
CORN    1 000010001    1    0  333.61900E-01     0.000     0.000     0.000     0.000     1.164     0.630   573.538   572.860     0.000     0.000     0.000     0.023     0.000     0.000   898.683  2000.020     0.000     0.000     0.000     0.052     0.000     0.052    98.833    -6.400    -2.800   -10.000    -1.315     7.759     0.000     0.000    -1.636   160.703    0.0000   -0.6188    0.2165    2.4412    0.3429    0.4379    0.4451    0.0000    0.0000    0.0000    0.0000
CORN    1 000010001    1    0  334.61900E-01     0.000     0.000     0.000     0.000     2.160     1.182   572.860   571.629     0.000     0.000     0.000     0.043     0.000     0.000   898.640  2000.020     0.000     0.000     0.000     0.052     0.000     0.052    98.833    -1.400     4.400    -7.200    -1.275     8.526     0.000     0.000    -1.533   160.703    0.0000   -0.7188   -0.0369    1.8625    0.3396    0.4352    0.4451    0.0000    0.0000    0.0000    0.0000
CORN    1 000010001    1    0  335.61900E-01     4.200     0.000     0.000     0.000     0.421     0.228   571.629   575.553     0.000     0.000     0.000     0.008     0.000     0.000   898.631  2000.020     0.000     0.000     0.000     0.052     0.000     0.052    96.063     6.150    11.700     0.600     1.817     4.036     0.000     0.000     1.782   154.893    0.0000    1.9088    2.0746    2.7207    0.3499    0.4400    0.4451    0.0000    0.0000    0.0000    0.0000
CORN    1 000010001    1    0  336.61900E-01     0.200     0.000     0.000     0.000     0.232     0.126   575.553   575.983     0.000     0.000     0.000     0.005     0.000     0.000   898.627  2000.019     0.000     0.000     0.000     0.052     0.000     0.052    96.272     6.650     9.400     3.900     3.286     6.655     0.000     0.000     3.309   153.819    0.0000    3.2596    3.3129    3.6048    0.3501    0.4400    0.4451    0.0000    0.0000    0.0000    0.0000
CORN    1 000010001    1    0  337.61900E-01     0.000     0.000     0.000     0.000     1.263     0.683   575.983   576.148     0.000     0.000     0.000     0.025     0.000     0.000   898.602  2000.019     0.000     0.000     0.000     0.052     0.000     0.053    96.295     5.250     9.400     1.100     4.155     3.776     0.000     0.000     4.170   151.457    0.0000    4.1581    4.1859    4.3414    0.3494    0.4400    0.4451    0.0000    0.0000    0.0000    0.0000
CORN    1 000010001    1    0  338.61900E-01     0.000     0.000     0.000     0.000     1.123     0.623   576.148   575.475     0.000     0.000     0.000     0.022     0.000     0.000   898.579  2000.019     0.000     0.000     0.000     0.052     0.000     0.053    96.303     3.300     7.200    -0.600     3.909     5.445     0.000     0.000     3.857   157.651    0.0000    4.0261    4.1720    4.5841    0.3478    0.4400    0.4451    0.0000    0.0000    0.0000    0.0000
CORN    1 000010001    1    0  339.61900E-01     1.500     0.000     0.000     0.000     0.135     0.073   575.475   576.852     0.000     0.000     0.000     0.003     0.000     0.000   898.576  2000.019     0.000     0.000     0.000     0.052     0.000     0.052    96.268     1.900     4.400    -0.600     3.321     6.226     0.000     0.000     3.226   154.947    0.0000    3.5331    3.7890    4.4797    0.3503    0.4400    0.4451    0.0000    0.0000    0.0000    0.0000
CORN    1 000010001    1    0  340.61900E-01     0.000     0.000     0.000     0.000     1.024     0.554   576.852   576.248     0.000     0.000     0.000     0.020     0.000     0.000   898.556  2000.018     0.000     0.000     0.000     0.052     0.000     0.052    96.339    -0.550     2.200    -3.300     2.316     7.704     0.000     0.000     2.175   155.348    0.0000    2.6387    3.0258    4.0568    0.3499    0.4400    0.4451    0.0000    0.0000    0.0000    0.0000
CORN    1 000010001    1    0  341.61900E-01     0.000     0.000     0.000     0.000     0.538     0.291   576.248   575.907     0.000     0.000     0.000     0.011     0.000     0.000   898.545  2000.018     0.000     0.000     0.000     0.052     0.000     0.052    96.308     0.550     4.400    -3.300     1.698     4.602     0.000     0.000     1.546   157.322    0.0000    2.0448    2.4706    3.6292    0.3493    0.4400    0.4451    0.0000    0.0000    0.0000    0.0000
CORN    1 000010001    1    0  342.61900E-01     0.000     0.000     0.000     0.000     0.995     0.539   575.907   575.319     0.000     0.000     0.000     0.020     0.000     0.000   898.526  2000.018     0.000     0.000     0.000     0.052     0.000     0.052    96.291     5.550    10.000     1.100     3.344     3.871     0.000     0.000     3.315   158.436    0.0000    3.4254    3.5661    4.0608    0.3480    0.4400    0.4451    0.0000    0.0000    0.0000    0.0000
CORN    1 000010001    1    0  343.61900E-01     8.100     0.000     0.000     0.000     0.071     0.038   575.319   582.338     0.266     0.009     0.000     0.001     0.000     0.000   898.532  2000.018     0.557     0.510     0.000     0.056     0.000     0.566    96.260     9.200    12.800     5.600     6.739     1.968     0.033     0.003     6.880   137.123    0.0000    6.4466    6.1568    5.5633    0.3503    0.4400    0.4451    0.0000    0.0000    0.0000    0.0062
CORN    1 000010001    1    0  344.61900E-01     0.000     0.000     0.000     0.000     0.784     0.424   582.338   581.857     0.000     0.008     0.000     0.016     0.000     0.000   898.524  2000.018     0.000     0.043     0.000     0.056     0.000     0.099    96.612     6.950    13.900     0.000     6.844     6.579     0.000     0.000     6.888   137.922    0.0000    6.7424    6.6205    6.3154    0.3502    0.4400    0.4451    0.0000    0.0000    0.0000    0.0005
CORN    1 000010001    1    0  345.61900E-01     0.300     0.000     0.000     0.000     0.137     0.074   581.857   582.027     0.000     0.008     0.000     0.003     0.000     0.000   898.529  2000.018     0.000     0.004     0.000     0.056     0.000     0.060    96.589     0.550     2.200    -1.100     3.442     2.251     0.000     0.000     3.252   139.445    0.0000    3.8568    4.3072    5.3814    0.3503    0.4400    0.4451    0.0000    0.0000    0.0012    0.0000
CORN    1 000010001    1    0  346.61900E-01     0.000     0.000     0.000     0.000     0.744     0.403   582.027   581.569     0.000     0.008     0.000     0.015     0.000     0.000   898.522  2000.018     0.000     0.000     0.000     0.056     0.000     0.056    96.597    -1.650     1.100    -4.400     1.896     6.330     0.000     0.000     1.690   140.544    0.0000    2.3632    2.9196    4.3756    0.3498    0.4400    0.4451    0.0000    0.0000    0.0000    0.0000
CORN    1 000010001    1    0  347.61900E-01     0.000     0.000     0.000     0.000     1.254     0.678   581.569   580.834     0.000     0.007     0.000     0.025     0.000     0.000   898.504  2000.019     0.000     0.000     0.000     0.056     0.000     0.056    96.575     0.550     7.800    -6.700     1.516     6.276     0.000     0.000     1.343   144.417    0.0000    1.9160    2.4128    3.7765    0.3485    0.4400    0.4451    0.0000    0.0000    0.0000    0.0000
CORN    1 000010001    1    0  348.61900E-01     0.000     0.000     0.000     0.000     0.907     0.491   580.834   580.288     0.000     0.007     0.000     0.018     0.000     0.000   898.492  2000.019     0.000     0.000     0.000     0.056     0.000     0.056    96.539    -0.550     5.000    -6.100     0.933     6.304     0.000     0.000     0.749   150.619    0.0000    1.3494    1.8625    3.2673    0.3471    0.4400    0.4451    0.0000    0.0000    0.0000    0.0000
CORN    1 000010001    1    0  349.61900E-01     0.000     0.000     0.000     0.000     1.918     1.050   580.288   579.183     0.000     0.007     0.000     0.038     0.000     0.000   898.461  2000.019     0.000     0.000     0.000     0.056     0.000     0.056    96.512     1.350     8.300    -5.600     1.109     6.397     0.000     0.000     0.962   155.234    0.0000    1.4434    1.8696    3.0758    0.3440    0.4393    0.4451    0.0000    0.0000    0.0000    0.0000
CORN    1 000010001    1    0  350.61900E-01     0.000     0.000     0.000     0.000     1.385     0.765   579.183   578.361     0.000     0.007     0.000     0.028     0.000     0.000   898.439  2000.019     0.000     0.000     0.000     0.056     0.000     0.056    96.457     5.000    12.200    -2.200     2.615     4.645     0.000     0.000     2.567   158.848    0.0000    2.7354    2.9218    3.5396    0.3418    0.4380    0.4451    0.0000    0.0000    0.0000    0.0000
CORN    1 000010001    1    0  351.61900E-01     6.100     0.000     0.000     0.000     0.000     0.000   578.361   583.895     0.451     0.021     0.001     0.000     0.000     0.000   898.459  2000.020     0.000     0.000     0.000     0.057     0.000     0.057    96.416     6.950    11.100     2.800     5.607     1.192     0.000     0.000     5.711   143.259    0.0000    5.3999    5.2117    4.8816    0.3503    0.4400    0.4451    0.0000    0.0000    0.0000    0.0000
CORN    1 000010001    1    0  352.61900E-01     0.300     0.000     0.000     0.000     0.246     0.133   583.895   583.995     0.000     0.020     0.001     0.005     0.000     0.000   898.473  2000.021     0.000     0.000     0.000     0.057     0.000     0.057    96.686     4.700     9.400     0.000     5.219     3.147     0.000     0.000     5.206   141.290    0.0000    5.2443    5.2727    5.3585    0.3503    0.4400    0.4451    0.0000    0.0000    0.0000    0.0000
CORN    1 000010001    1    0  353.61900E-01     0.000     0.000     0.000     0.000     0.862     0.466   583.995   583.470     0.000     0.020     0.001     0.017     0.000     0.000   898.475  2000.021     0.000     0.000     0.000     0.057     0.000     0.057    96.690    -1.400     2.200    -5.000     3.135     5.958     0.000     0.000     2.985   142.907    0.0000    3.4681    3.8454    4.7905    0.3501    0.4400    0.4451    0.0000    0.0000    0.0000    0.0000
CORN    1 000010001    1    0  354.61900E-01     0.000     0.000     0.000     0.000     0.348     0.188   583.470   583.224     0.000     0.019     0.001     0.007     0.000     0.000   898.486  2000.022     0.000     0.000     0.000     0.057     0.000     0.057    96.666    -1.650     1.100    -4.400     1.773     6.863     0.000     0.000     1.587   147.336    0.0000    2.1950    2.6972    4.0205    0.3497    0.4400    0.4451    0.0000    0.0000    0.0000    0.0000
CORN    1 000010001    1    0  355.61900E-01     0.000     0.000     0.000     0.000     0.740     0.400   583.224   582.766     0.000     0.018     0.001     0.015     0.000     0.000   898.489  2000.023     0.000     0.000     0.000     0.057     0.000     0.058    96.654     1.700     6.700    -3.300     1.786     6.085     0.000     0.000     1.646   149.416    0.0000    2.1120    2.5238    3.6758    0.3489    0.4400    0.4451    0.0000    0.0000    0.0000    0.0000
CORN    1 000010001    1    0  356.61900E-01     0.600     0.000     0.000     0.000     0.145     0.079   582.766   583.229     0.000     0.018     0.001     0.003     0.000     0.000   898.503  2000.023     0.000     0.000     0.000     0.057     0.000     0.058    96.632     5.250     8.300     2.200     2.918     6.089     0.000     0.000     2.859   148.219    0.0000    3.0653    3.2777    3.9452    0.3501    0.4400    0.4451    0.0000    0.0000    0.0026    0.0000
CORN    1 000010001    1    0  357.61900E-01     4.700     0.000     0.000     0.000     0.062     0.034   583.229   586.066     0.146     0.022     0.001     0.001     0.000     0.000   898.522  2000.024     0.000     0.000     0.000     0.060     0.000     0.206    96.654     6.100     7.800     4.400     4.556     2.708     0.000     0.000     4.572   111.877    0.1461    4.5344    4.5459    4.6897    0.3503    0.4400    0.4451    0.0002    0.0000    0.0229    0.0000
CORN    1 000010001    1    0  358.61900E-01     0.000     0.000     0.000     0.000     1.953     1.068   586.066   584.938     0.000     0.021     0.001     0.039     0.000     0.000   898.503  2000.025     0.000     0.000     0.000     0.060     0.000     0.174    96.786     6.400     7.800     5.000     5.104     7.342     0.000     0.000     5.104   125.426    0.1138    5.1091    5.1310    5.2444    0.3500    0.4400    0.4451    0.0002    0.0000    0.0000    0.0000
CORN    1 000010001    1    0  359.61900E-01     0.600     0.000     0.000     0.000     0.092     0.050   584.938   585.427     0.000     0.020     0.001     0.002     0.000     0.000   898.521  2000.025     0.000     0.000     0.000     0.060     0.000     0.149    96.734     9.450    11.700     7.200     7.173     3.040     0.000     0.000     7.270   129.892    0.0886    6.9680    6.7576    6.3037    0.3502    0.4400    0.4451    0.0001    0.0000    0.0000    0.0000
CORN    1 000010001    1    0  360.61900E-01     4.100     0.000     0.000     0.000     0.043     0.023   585.427   586.077     0.127     0.024     0.001     0.001     0.000     0.000   898.543  2000.026     0.000     0.000     0.000     0.062     0.000     0.435    96.757    11.350    14.400     8.300     9.563     1.967     0.000     0.000     9.735    98.116    0.3728    9.1847    8.7621    7.7396    0.3503    0.4400    0.4451    0.0005    0.0000    0.0199    0.0000
CORN    1 000010001    1    0  361.61900E-01     0.300     0.000     0.000     0.000     0.039     0.021   586.077   586.079     0.005     0.023     0.001     0.001     0.000     0.000   898.564  2000.027     0.000     0.000     0.000     0.062     0.000     0.372    96.787     6.650    12.200     1.100     7.693     1.509     0.000     0.000     7.667   122.912    0.3100    7.7400    7.7606    7.7313    0.3503    0.4400    0.4451    0.0004    0.0000    0.0016    0.0000
CORN    1 000010001    1    0  362.61900E-01     6.200     0.000     0.000     0.000     0.704     0.381   586.079   585.719     0.004     0.023     0.001     0.014     0.000     0.000   898.571  2000.028     1.548     1.417     0.000     0.065     0.000     2.153    96.787     5.300     8.900     1.700     6.951     6.271     0.073     0.025     6.901    87.222    0.6700    7.0617    7.1850    7.4844    0.3503    0.4400    0.4451    0.0008    0.0000    0.0270    0.0189
CORN    1 000010001    1    0  363.61900E-01     0.000     0.000     0.000     0.000     0.867     0.469   585.719   585.189     0.000     0.022     0.001     0.017     0.000     0.000   898.575  2000.028     0.000     0.120     0.000     0.065     0.000     0.707    96.770     3.350     6.100     0.600     5.831     6.092     0.000     0.000     5.729   128.361    0.5218    6.0571    6.3187    6.9846    0.3497    0.4400    0.4451    0.0006    0.0000    0.0000    0.0016
CORN    1 000010001    1    0  364.61900E-01     0.300     0.000     0.000     0.000     0.860     0.465   585.189   584.964     0.000     0.021     0.001     0.017     0.000     0.000   898.578  2000.029     0.000     0.010     0.000     0.065     0.000     0.482    96.746     1.100     2.200     0.000     3.534     2.778     0.000     0.000     3.324   130.300    0.4064    3.9989    4.5350    5.8983    0.3494    0.4400    0.4451    0.0005    0.0000    0.0014    0.0001
CORN    1 000010001    1    0  365.61900E-01     1.100     0.000     0.000     0.000     0.000     0.000   584.964   585.918     0.085     0.023     0.001     0.000     0.000     0.000   898.600  2000.030     0.000     0.001     0.000     0.065     0.000     0.382    96.736     1.950     3.900     0.000     2.394     0.605     0.000     0.000     2.184   126.165    0.3165    2.8673    3.4385    4.9610    0.3503    0.4400    0.4451    0.0004    0.0000    0.0023    0.0000
