1
    SWAT Jan 13 2025   VER kalcic-nifafrozen                                                             0/ 0/   0      0: 0: 0

    General Input/Output section (file.cio):                                        
    8/10/2023 12:00:00 AM ARCGIS-SWAT interface AV                                  
                                                                                    


LULC  HRU       GIS  SUB  MGT  MON   AREAkm2  PRECIPmm SNOFALLmm SNOMELTmm     IRRmm     PETmm      ETmm SW_INITmm  SW_ENDmm    PERCmm GW_RCHGmm DA_RCHGmm   REVAPmm  SA_IRRmm  DA_IRRmm   SA_STmm   DA_STmm SURQGENmm SURQCNTmm   TLOSSmm LATQGENmm    GW_Qmm    WYLDmm   DAILYCN TMP_AVdgC  TMP_MXdC  TMP_MNdC SOL_TMPdC SOLRMJ/m2  SYLDt/ha  USLEt/ha SUR_TMPdC  wattblmm   QTILEmm SOLTMP3dc SOLTMP4dc SOLTMP5dc   VWC10mm   VWC20mm   VWC50mm Tno3kg/ha Sno3kg/ha    TPg/ha    SPg/ha
CORN    1 000010001    1    0    1.61900E-01     0.000     0.000     0.000     0.000     1.057     0.528   606.002   603.786     0.000     0.000     0.000     0.021     0.000     0.000   944.678  2000.005     0.000     0.012     0.000     0.152     0.000     2.058    97.279    -3.050    -1.100    -5.000     1.887     7.654     0.000     0.000     1.626   734.215    1.8935    2.4071    3.0247    4.9085    0.3517    0.4432    0.4537    0.0005    0.0000    0.0000    0.0004
CORN    1 000010001    1    0    2.61900E-01     0.000     0.000     0.000     0.000     0.948     0.476   603.786   601.954     0.000     0.000     0.000     0.019     0.000     0.000   944.660  2000.005     0.000     0.001     0.000     0.154     0.000     1.878    97.195    -3.050     0.000    -6.100     0.636     7.975     0.000     0.000     0.365   755.788    1.7227    1.1776    1.8317    3.8691    0.3507    0.4425    0.4513    0.0004    0.0000    0.0000    0.0000
CORN    1 000010001    1    0    3.61900E-01     0.000     0.000     0.000     0.000     1.175     0.587   601.954   600.252     0.000     0.000     0.000     0.024     0.000     0.000   944.636  2000.005     0.000     0.000     0.000     0.155     0.000     1.696    97.124    -1.100     2.200    -4.400     0.170     6.505     0.000     0.000    -0.071   773.475    1.5410    0.6536    1.2514    3.1626    0.3495    0.4416    0.4492    0.0004    0.0000    0.0000    0.0000
CORN    1 000010001    1    0    4.61900E-01     0.300     0.300     0.000     0.000     0.107     0.052   600.252   600.004     0.000     0.000     0.000     0.002     0.000     0.000   944.634  2000.005     0.000     0.000     0.000     0.156     0.000     1.356    98.833    -3.050    -1.100    -5.000    -0.678     7.074     0.000     0.000    -0.938   773.475    1.2001   -0.1642    0.4633    2.4536    0.3494    0.4415    0.4489    0.0003    0.0000    0.0000    0.0000
CORN    1 000010001    1    0    5.61900E-01     0.000     0.000     0.000     0.000     0.094     0.045   600.004   599.766     0.000     0.000     0.000     0.002     0.000     0.000   944.632  2000.005     0.000     0.000     0.000     0.157     0.000     1.092    98.833    -6.700    -1.700   -11.700    -2.315     4.679     0.000     0.000    -2.640   773.475    0.9346   -1.6809   -0.9247    1.4335    0.3493    0.4414    0.4485    0.0002    0.0000    0.0000    0.0000
CORN    1 000010001    1    0    6.61900E-01     0.000     0.000     0.000     0.000     0.695     0.334   599.766   599.242     0.000     0.000     0.000     0.014     0.000     0.000   944.618  2000.005     0.000     0.000     0.000     0.158     0.000     0.886    98.833    -5.850    -0.600   -11.100    -2.085     4.527     0.000     0.000    -2.356   773.475    0.7279   -1.5602   -0.9381    1.0212    0.3486    0.4410    0.4481    0.0002    0.0000    0.0000    0.0000
CORN    1 000010001    1    0    7.61900E-01     0.000     0.000     0.000     0.000     0.363     0.171   599.242   598.885     0.000     0.000     0.000     0.007     0.000     0.000   944.611  2000.005     0.000     0.000     0.000     0.158     0.000     0.725    98.833    -1.150     4.400    -6.700    -0.297     4.977     0.000     0.000    -0.435   773.475    0.5669   -0.0259    0.3152    1.4664    0.3482    0.4407    0.4478    0.0001    0.0000    0.0000    0.0000
CORN    1 000010001    1    0    8.61900E-01     0.500     0.000     0.001     0.000     0.449     0.220   598.885   598.579     0.000     0.000     0.000     0.009     0.000     0.000   944.602  2000.005     0.000     0.000     0.000     0.159     0.000     0.738    97.002     2.500     8.300    -3.300     1.115     4.163     0.000     0.000     1.060   799.281    0.5797    1.2333    1.4127    2.1324    0.3496    0.4444    0.4464    0.0001    0.0000    0.0000    0.0000
CORN    1 000010001    1    0    9.61900E-01    10.200     0.000     0.000     0.000     0.529     0.277   598.579   604.061     0.000     0.000     0.000     0.011     0.000     0.000   944.591  2000.005     3.141     2.875     0.000     0.162     0.000     3.729    96.990     5.000     8.300     1.700     4.112     0.550     0.083     0.046     4.233   758.255    0.6924    3.9032    3.7377    3.5380    0.3542    0.4444    0.4510    0.0002    0.0000    0.0344    0.1064
CORN    1 000010001    1    0   10.61900E-01    23.900     0.000     0.000     0.000     0.567     0.277   604.061   609.140     0.000     0.000     0.000     0.011     0.000     0.000   944.580  2000.005    16.848    15.668     0.000     0.168     0.000    16.931    97.206     3.850     9.400    -1.700     3.953     2.141     0.710     0.291     3.999   673.178    1.0956    3.8872    3.9011    4.0937    0.3542    0.4444    0.4599    0.0003    0.0000    0.0436    0.5790
CORN    1 000010001    1    0   11.61900E-01     1.500     1.500     0.000     0.000     0.000     0.000   609.140   608.850     0.000     0.000     0.000     0.000     0.000     0.000   944.580  2000.005     0.000     1.323     0.000     0.170     0.000     2.347    98.833    -8.350    -1.100   -15.600    -1.273     3.655     0.000     0.000    -1.623   673.178    0.8532   -0.5776    0.1961    2.3869    0.3542    0.4444    0.4594    0.0003    0.0000    0.0000    0.0489
CORN    1 000010001    1    0   12.61900E-01     2.500     2.500     0.000     0.000     0.419     0.209   608.850   608.497     0.000     0.000     0.000     0.008     0.000     0.000   944.572  2000.005     0.000     0.112     0.000     0.170     0.000     0.946    98.833    -8.650    -1.700   -15.600    -6.103     0.948     0.000     0.000    -6.625   673.178    0.6645   -5.0554   -3.8479   -0.2662    0.3539    0.4444    0.4594    0.0002    0.0000    0.0000    0.0041
CORN    1 000010001    1    0   13.61900E-01     1.000     1.000     0.000     0.000     0.000     0.000   608.497   608.212     0.000     0.000     0.000     0.000     0.000     0.000   944.572  2000.005     0.000     0.009     0.000     0.172     0.000     0.699    98.833   -12.500    -5.600   -19.400    -2.075     5.823     0.000     0.000    -8.612   673.178    0.5175   -1.6681   -1.1917    0.2586    0.3539    0.4444    0.4587    0.0002    0.0000    0.0000    0.0003
CORN    1 000010001    1    0   14.61900E-01     0.500     0.500     0.000     0.000     0.347     0.174   608.212   607.759     0.000     0.000     0.000     0.007     0.000     0.000   944.565  2000.005     0.000     0.001     0.000     0.174     0.000     0.578    98.833   -11.650    -3.900   -19.400    -2.104     7.205     0.000     0.000    -9.997   673.178    0.4030   -1.7037   -1.2351    0.1893    0.3536    0.4444    0.4582    0.0001    0.0000    0.0000    0.0000
CORN    1 000010001    1    0   15.61900E-01     0.000     0.000     0.000     0.000     1.428     0.733   607.759   607.466     0.000     0.000     0.000     0.029     0.000     0.000   944.536  2000.005     0.000     0.000     0.000     0.176     0.000     0.490    98.833     1.100     6.100    -3.900    -0.154     8.984     0.000     0.000    -3.573   673.178    0.3139    0.0114    0.2227    0.9354    0.3536    0.4444    0.4577    0.0001    0.0000    0.0000    0.0000
CORN    1 000010001    1    0   16.61900E-01     5.800     0.000     0.000     0.000     0.213     0.107   607.466   609.091     0.000     0.000     0.000     0.004     0.000     0.000   944.532  2000.005     1.398     1.280     0.000     0.181     0.000     2.235    97.333     2.500     6.100    -1.100     1.270     4.716     0.085     0.000     0.654   678.916    0.7749    1.3114    1.3954    1.7946    0.3544    0.4444    0.4594    0.0003    0.0000    0.0251    0.0470
CORN    1 000010001    1    0   17.61900E-01     0.000     0.000     0.000     0.000     0.222     0.111   609.091   606.938     0.000     0.000     0.000     0.004     0.000     0.000   944.527  2000.005     0.000     0.108     0.000     0.183     0.000     1.283    97.391    -3.100    -0.600    -5.600     0.536     7.230     0.000     0.000    -2.651   713.586    0.9919    0.7164    0.9640    1.8612    0.3543    0.4444    0.4559    0.0004    0.0000    0.0000    0.0040
CORN    1 000010001    1    0   18.61900E-01     0.000     0.000     0.000     0.000     0.332     0.166   606.938   606.518     0.000     0.000     0.000     0.007     0.000     0.000   944.521  2000.005     0.000     0.009     0.000     0.184     0.000     0.966    98.833   -11.400    -5.000   -17.800    -1.141     6.499     0.000     0.000    -8.180   713.586    0.7725   -0.7549   -0.2798    1.2557    0.3542    0.4444    0.4554    0.0003    0.0000    0.0000    0.0003
CORN    1 000010001    1    0   19.61900E-01     0.000     0.000     0.000     0.000     0.635     0.318   606.518   605.950     0.000     0.000     0.000     0.013     0.000     0.000   944.508  2000.005     0.000     0.001     0.000     0.186     0.000     0.788    98.833   -14.200   -10.600   -17.800    -2.542     3.592     0.000     0.000   -12.134   713.586    0.6016   -2.0236   -1.4113    0.4731    0.3537    0.4444    0.4550    0.0002    0.0000    0.0000    0.0000
CORN    1 000010001    1    0   20.61900E-01     0.000     0.000     0.000     0.000     0.026     0.013   605.950   605.691     0.000     0.000     0.000     0.001     0.000     0.000   944.508  2000.005     0.000     0.000     0.000     0.187     0.000     0.656    98.833   -12.500    -7.800   -17.200    -2.543     6.060     0.000     0.000   -11.249   713.586    0.4686   -2.0735   -1.5249    0.1400    0.3537    0.4444    0.4546    0.0002    0.0000    0.0000    0.0000
CORN    1 000010001    1    0   21.61900E-01     0.800     0.800     0.000     0.000     0.000     0.000   605.691   605.094     0.000     0.000     0.000     0.000     0.000     0.000   944.508  2000.005     0.000     0.000     0.000     0.188     0.000     0.553    98.833   -11.400    -7.200   -15.600    -2.432     5.007     0.000     0.000   -10.433   713.586    0.3649   -2.0009   -1.4989    0.0172    0.3537    0.4444    0.4542    0.0001    0.0000    0.0000    0.0000
CORN    1 000010001    1    0   22.61900E-01     0.000     0.000     0.000     0.000     0.000     0.000   605.094   604.085     0.000     0.000     0.000     0.000     0.000     0.000   944.508  2000.005     0.000     0.000     0.000     0.189     0.000     0.474    98.833    -8.900    -3.900   -13.900    -1.689     6.817     0.000     0.000    -8.752   713.586    0.2842   -1.3581   -0.9682    0.2282    0.3537    0.4444    0.4537    0.0001    0.0000    0.0000    0.0000
CORN    1 000010001    1    0   23.61900E-01     0.000     0.000     0.000     0.000     0.637     0.318   604.085   603.004     0.000     0.000     0.000     0.013     0.000     0.000   944.495  2000.005     0.000     0.000     0.000     0.190     0.000     0.412    98.833    -5.550    -3.900    -7.200    -0.973     7.513     0.000     0.000    -6.365   713.586    0.2213   -0.7175   -0.4084    0.5723    0.3530    0.4439    0.4533    0.0001    0.0000    0.0000    0.0000
CORN    1 000010001    1    0   24.61900E-01     0.000     0.000     0.000     0.000     0.686     0.339   603.004   602.134     0.000     0.000     0.000     0.014     0.000     0.000   944.481  2000.005     0.000     0.000     0.000     0.191     0.000     0.364    98.833    -6.950    -2.800   -11.100    -0.895     6.334     0.000     0.000    -6.486   713.586    0.1724   -0.6291   -0.3047    0.7357    0.3523    0.4434    0.4528    0.0001    0.0000    0.0000    0.0000
CORN    1 000010001    1    0   25.61900E-01     0.000     0.000     0.000     0.000     0.428     0.199   602.134   601.080     0.000     0.000     0.000     0.009     0.000     0.000   944.472  2000.005     0.000     0.000     0.000     0.192     0.000     0.326    98.833    -4.150     1.100    -9.400    -0.344     6.489     0.000     0.000    -4.719   713.586    0.1342   -0.1320    0.1343    1.0214    0.3484    0.4431    0.4524    0.0000    0.0000    0.0000    0.0000
CORN    1 000010001    1    0   26.61900E-01     0.000     0.000     0.000     0.000     0.033     0.016   601.080   599.664     0.000     0.000     0.000     0.001     0.000     0.000   944.472  2000.005     0.000     0.000     0.000     0.193     0.000     0.518    97.090     1.650     7.200    -3.900     0.941     6.086     0.000     0.000    -0.503   765.423    0.3253    1.0197    1.1429    1.6470    0.3475    0.4431    0.4503    0.0001    0.0000    0.0000    0.0000
CORN    1 000010001    1    0   27.61900E-01     0.000     0.000     0.000     0.000     0.126     0.059   599.664   599.303     0.000     0.000     0.000     0.003     0.000     0.000   944.469  2000.005     0.000     0.000     0.000     0.193     0.000     0.627    97.034    -3.050     0.600    -6.700     0.586     4.356     0.000     0.000    -2.592   780.966    0.4337    0.7468    0.9678    1.7796    0.3517    0.4430    0.4485    0.0001    0.0000    0.0000    0.0000
CORN    1 000010001    1    0   28.61900E-01     0.000     0.000     0.000     0.000     0.455     0.216   599.303   598.391     0.000     0.000     0.000     0.009     0.000     0.000   944.460  2000.005     0.000     0.000     0.000     0.193     0.000     0.680    97.019    -4.200    -1.700    -6.700     0.330     6.759     0.000     0.000    -3.727   794.057    0.4874    0.5325    0.8019    1.7604    0.3512    0.4427    0.4469    0.0001    0.0000    0.0000    0.0000
CORN    1 000010001    1    0   29.61900E-01     0.300     0.000     0.000     0.000     0.000     0.000   598.391   598.043     0.000     0.000     0.000     0.000     0.000     0.000   944.460  2000.005     0.000     0.000     0.000     0.192     0.000     0.697    96.982     0.550     6.100    -5.000     1.212     4.975     0.000     0.000    -0.622   805.469    0.5048    1.3118    1.4691    2.1182    0.3525    0.4444    0.4457    0.0001    0.0000    0.0000    0.0000
CORN    1 000010001    1    0   30.61900E-01     0.000     0.000     0.000     0.000     0.495     0.243   598.043   597.509     0.000     0.000     0.000     0.010     0.000     0.000   944.450  2000.005     0.000     0.000     0.000     0.192     0.000     0.692    96.968    -1.950     1.100    -5.000     1.014     5.030     0.000     0.000    -1.812   814.905    0.4998    1.1606    1.3741    2.2027    0.3520    0.4440    0.4445    0.0001    0.0000    0.0000    0.0000
CORN    1 000010001    1    0   31.61900E-01     0.000     0.000     5.463     0.000     1.443     0.720   597.509   601.540     0.000     0.000     0.000     0.029     0.000     0.000   944.421  2000.005     0.043     0.039     0.000     0.193     0.000     0.783    96.946     4.700    14.400    -5.000     2.125     6.825     0.001     0.000     1.995   788.711    0.5510    2.1481    2.2279    2.6927    0.3539    0.4444    0.4476    0.0001    0.0000    0.0273    0.0015
CORN    1 000010001    1    0   32.61900E-01     0.300     0.000     0.000     0.000     0.189     0.092   601.540   601.594     0.000     0.000     0.000     0.004     0.000     0.000   944.418  2000.005     0.000     0.003     0.000     0.193     0.000     0.768    97.108     3.600    14.400    -7.200     2.629     5.706     0.000     0.000     2.640   797.250    0.5717    2.6245    2.6804    3.1082    0.3543    0.4444    0.4466    0.0001    0.0000    0.0002    0.0001
CORN    1 000010001    1    0   33.61900E-01     0.000     0.000     0.000     0.000     1.320     0.658   601.594   600.993     0.000     0.000     0.000     0.026     0.000     0.000   944.391  2000.005     0.000     0.000     0.000     0.193     0.000     0.780    97.110     2.500     7.800    -2.800     2.618    10.099     0.000     0.000     2.615   797.768    0.5867    2.6424    2.7368    3.3016    0.3540    0.4444    0.4466    0.0001    0.0000    0.0008    0.0000
CORN    1 000010001    1    0   34.61900E-01    21.100     0.000     0.000     0.000     0.301     0.147   600.993   606.231     0.000     0.000     0.000     0.006     0.000     0.000   944.385  2000.005    13.794    12.629     0.000     0.196     0.000    13.631    97.087     7.200    13.300     1.100     4.022     6.572     1.084     0.112     4.075   724.587    0.8054    3.9397    3.9309    4.0134    0.3543    0.4444    0.4547    0.0003    0.0000    0.0449    0.4795
CORN    1 000010001    1    0   35.61900E-01     0.000     0.000     0.000     0.000     1.852     0.925   606.231   603.837     0.000     0.000     0.000     0.037     0.000     0.000   944.348  2000.005     0.000     1.067     0.000     0.197     0.000     2.162    97.287     5.250    13.300    -2.800     4.335     8.929     0.000     0.000     4.375   748.096    0.8983    4.2811    4.3187    4.4782    0.3533    0.4444    0.4522    0.0003    0.0000    0.0000    0.0405
CORN    1 000010001    1    0   36.61900E-01     0.000     0.000     0.000     0.000     1.083     0.530   603.837   604.213     0.000     0.000     0.000     0.022     0.000     0.000   944.327  2000.005     0.000     0.090     0.000     0.199     0.000     1.300    97.197    -5.550    -2.200    -8.900     2.233    10.375     0.000     0.000     2.126   735.619    1.0105    2.4707    2.8360    3.9006    0.3533    0.4439    0.4535    0.0004    0.0000    0.0000    0.0034
CORN    1 000010001    1    0   37.61900E-01     0.000     0.000     0.000     0.000     0.539     0.264   604.213   602.607     0.000     0.000     0.000     0.011     0.000     0.000   944.316  2000.005     0.000     0.008     0.000     0.200     0.000     1.240    97.211    -2.500     3.900    -8.900     1.167     9.201     0.000     0.000     0.997   756.794    1.0321    1.5241    1.9524    3.2787    0.3527    0.4435    0.4512    0.0004    0.0000    0.0000    0.0003
CORN    1 000010001    1    0   38.61900E-01     0.000     0.000     0.000     0.000     1.248     0.625   602.607   600.954     0.000     0.000     0.000     0.025     0.000     0.000   944.291  2000.005     0.000     0.001     0.000     0.200     0.000     1.203    97.150    -1.150     4.400    -6.700     0.658     9.098     0.000     0.000     0.488   773.921    1.0020    1.0084    1.4393    2.8104    0.3513    0.4426    0.4493    0.0004    0.0000    0.0000    0.0000
CORN    1 000010001    1    0   39.61900E-01     1.000     0.000     0.000     0.000     0.607     0.297   600.954   600.726     0.000     0.000     0.000     0.012     0.000     0.000   944.279  2000.005     0.000     0.000     0.000     0.200     0.000     1.143    97.085     4.700    10.000    -0.600     2.667     2.948     0.000     0.000     2.645   788.359    0.9429    2.7277    2.8482    3.3764    0.3538    0.4440    0.4476    0.0004    0.0000    0.0033    0.0000
CORN    1 000010001    1    0   40.61900E-01     0.300     0.000     0.000     0.000     0.225     0.110   600.726   600.125     0.000     0.000     0.000     0.004     0.000     0.000   944.274  2000.005     0.000     0.000     0.000     0.200     0.000     1.070    97.076    -0.550     3.900    -5.000     1.224     3.093     0.000     0.000     1.061   800.343    0.8703    1.5434    1.9189    3.0730    0.3542    0.4442    0.4463    0.0003    0.0000    0.0012    0.0000
CORN    1 000010001    1    0   41.61900E-01     0.500     0.500     0.000     0.000     0.142     0.071   600.125   599.884     0.000     0.000     0.000     0.003     0.000     0.000   944.271  2000.005     0.000     0.000     0.000     0.199     0.000     0.877    98.833    -7.800    -5.000   -10.600    -3.693     2.143     0.000     0.000    -4.133   800.343    0.6778   -2.8383   -1.8632    1.0099    0.3540    0.4441    0.4460    0.0003    0.0000    0.0000    0.0000
CORN    1 000010001    1    0   42.61900E-01     0.300     0.300     0.000     0.000     0.000     0.000   599.884   599.740     0.000     0.000     0.000     0.000     0.000     0.000   944.271  2000.005     0.000     0.000     0.000     0.198     0.000     0.726    98.833   -11.950    -8.300   -15.600   -10.234     0.267     0.000     0.000   -10.991   800.343    0.5278   -8.7798   -7.1547   -2.4457    0.3540    0.4441    0.4460    0.0002    0.0000    0.0000    0.0000
CORN    1 000010001    1    0   43.61900E-01     0.000     0.000     0.000     0.000     0.789     0.394   599.740   599.203     0.000     0.000     0.000     0.016     0.000     0.000   944.255  2000.005     0.000     0.000     0.000     0.197     0.000     0.608    98.833   -10.000    -5.600   -14.400    -2.652     7.067     0.000     0.000    -2.884   800.343    0.4111   -2.2033   -1.6873   -0.1351    0.3532    0.4435    0.4459    0.0002    0.0000    0.0000    0.0000
CORN    1 000010001    1    0   44.61900E-01     0.000     0.000     0.000     0.000     0.528     0.264   599.203   598.433     0.000     0.000     0.000     0.011     0.000     0.000   944.245  2000.005     0.000     0.000     0.000     0.196     0.000     0.516    98.833   -12.250    -5.600   -18.900    -2.671     9.004     0.000     0.000    -2.903   800.343    0.3201   -2.2207   -1.7017   -0.1344    0.3526    0.4432    0.4459    0.0001    0.0000    0.0000    0.0000
CORN    1 000010001    1    0   45.61900E-01     0.000     0.000     0.000     0.000     0.326     0.151   598.433   597.216     0.000     0.000     0.000     0.007     0.000     0.000   944.238  2000.005     0.000     0.000     0.000     0.194     0.000     0.444    98.833   -13.350    -8.900   -17.800    -2.665     9.896     0.000     0.000    -2.896   800.343    0.2493   -2.2203   -1.7074   -0.1601    0.3509    0.4429    0.4458    0.0001    0.0000    0.0000    0.0000
CORN    1 000010001    1    0   46.61900E-01     0.800     0.800     0.000     0.000     0.000     0.000   597.216   594.482     0.000     0.000     0.000     0.000     0.000     0.000   944.238  2000.005     0.000     0.000     0.000     0.194     0.000     0.388    98.833    -9.400    -4.400   -14.400    -1.948     9.108     0.000     0.000    -2.132   800.343    0.1942   -1.5915   -1.1761    0.0958    0.3361    0.4400    0.4446    0.0001    0.0000    0.0000    0.0000
CORN    1 000010001    1    0   47.61900E-01     0.000     0.000     0.000     0.000     0.518     0.206   594.482   591.605     0.000     0.000     0.000     0.010     0.000     0.000   944.228  2000.005     0.000     0.000     0.000     0.193     0.000     0.344    98.833    -2.200     0.600    -5.000    -0.062     9.256     0.000     0.000    -0.126   800.343    0.1512    0.0731    0.2456    0.8371    0.3252    0.4305    0.4442    0.0001    0.0000    0.0000    0.0000
CORN    1 000010001    1    0   48.61900E-01     0.300     0.000     0.000     0.000     0.000     0.000   591.605   591.966     0.000     0.000     0.000     0.000     0.000     0.000   944.228  2000.005     0.000     0.000     0.000     0.192     0.000     0.310    98.833    -2.250    -0.600    -3.900    -0.300     7.012     0.000     0.000    -0.381   800.343    0.1178   -0.1312    0.0799    0.7850    0.3257    0.4355    0.4440    0.0000    0.0000    0.0000    0.0000
CORN    1 000010001    1    0   49.61900E-01     0.000     0.000     0.000     0.000     0.416     0.155   591.966   591.167     0.000     0.000     0.000     0.008     0.000     0.000   944.220  2000.005     0.000     0.000     0.000     0.191     0.000     0.367    96.709    -1.650     2.800    -6.100     0.135     9.716     0.000     0.000     0.079   827.360    0.1761    0.2548    0.4118    0.9665    0.3245    0.4358    0.4433    0.0000    0.0000    0.0000    0.0000
CORN    1 000010001    1    0   50.61900E-01     0.000     0.000     0.000     0.000     0.258     0.096   591.167   591.443     0.000     0.000     0.000     0.005     0.000     0.000   944.214  2000.005     0.000     0.000     0.000     0.190     0.000     0.327    98.833   -16.329    -7.284   -25.374    -1.932    13.742     0.000     0.000    -2.111   827.360    0.1372   -1.5681   -1.1421    0.1718    0.3259    0.4388    0.4433    0.0000    0.0000    0.0000    0.0000
CORN    1 000010001    1    0   51.61900E-01     0.000     0.000     0.927     0.000     1.456     0.733   591.443   589.420     0.000     0.000     0.000     0.029     0.000     0.000   944.185  2000.005     0.000     0.000     0.000     0.189     0.000     0.363    96.686    10.550    16.700     4.400     2.899     9.981     0.000     0.000     3.007   838.271    0.1738    2.6905    2.4868    2.0235    0.3156    0.4388    0.4433    0.0000    0.0000    0.0000    0.0000
CORN    1 000010001    1    0   52.61900E-01     0.000     0.000     0.000     0.000     2.063     0.807   589.420   592.134     0.000     0.000     0.000     0.041     0.000     0.000   944.144  2000.005     0.000     0.000     0.000     0.188     0.000     0.404    96.595    10.850    20.000     1.700     4.340    13.474     0.000     0.000     4.460   829.904    0.2155    4.0733    3.7976    3.2063    0.3310    0.4429    0.4431    0.0000    0.0000    0.0000    0.0000
CORN    1 000010001    1    0   53.61900E-01     0.000     0.000     0.000     0.000     1.035     0.439   592.134   594.317     0.000     0.000     0.000     0.021     0.000     0.000   944.123  2000.005     0.000     0.000     0.000     0.187     0.000     0.421    96.716     4.150    11.100    -2.800     4.293    10.535     0.000     0.000     4.390   838.907    0.2338    4.1186    3.9905    3.9075    0.3483    0.4421    0.4430    0.0000    0.0000    0.0000    0.0000
CORN    1 000010001    1    0   54.61900E-01     0.000     0.000     0.000     0.000     1.350     0.638   594.317   594.406     0.000     0.000     0.000     0.027     0.000     0.000   944.096  2000.005     0.000     0.000     0.000     0.186     0.000     0.423    96.811     1.700     5.600    -2.200     3.650     8.622     0.000     0.000     3.686   846.714    0.2367    3.6007    3.6211    4.0054    0.3469    0.4411    0.4428    0.0000    0.0000    0.0000    0.0000
CORN    1 000010001    1    0   55.61900E-01    24.900     0.000     0.000     0.000     0.109     0.054   594.406   602.825     0.000     0.000     0.000     0.002     0.000     0.000   944.094  2000.005    15.304    14.011     0.000     0.188     0.000    14.568    96.815     3.850     9.400    -1.700     3.735     2.674     1.428     0.272     3.772   779.409    0.3686    3.6873    3.7148    4.1389    0.3544    0.4444    0.4487    0.0000    0.0000    0.0445    0.5420
CORN    1 000010001    1    0   56.61900E-01    13.200     0.000     0.000     0.000     1.145     0.572   602.825   607.198     0.000     0.000     0.000     0.023     0.000     0.000   944.071  2000.005     7.143     7.723     0.000     0.193     0.000     8.638    97.158     1.700     5.600    -2.200     2.734     2.880     0.000     0.132     2.704   701.556    0.7220    2.8177    2.9928    3.8467    0.3540    0.4444    0.4571    0.0001    0.0000    0.0392    0.2960
CORN    1 000010001    1    0   57.61900E-01     2.300     0.000     0.000     0.000     0.201     0.098   607.198   607.245     0.000     0.000     0.000     0.004     0.000     0.000   944.067  2000.005     0.000     0.652     0.000     0.195     0.000     1.817    97.323    -2.500     0.000    -5.000     1.129     6.118     0.000     0.000     0.983   708.709    0.9692    1.4414    1.8755    3.1966    0.3543    0.4444    0.4564    0.0001    0.0000    0.0128    0.0250
CORN    1 000010001    1    0   58.61900E-01     0.000     0.000     0.000     0.000     0.974     0.477   607.245   605.385     0.000     0.000     0.000     0.019     0.000     0.000   944.048  2000.005     0.000     0.055     0.000     0.197     0.000     1.331    97.325    -2.200     0.600    -5.000     0.383     9.198     0.000     0.000     0.221   731.469    1.0795    0.7285    1.1879    2.6326    0.3540    0.4444    0.4540    0.0002    0.0000    0.0000    0.0021
CORN    1 000010001    1    0   59.61900E-01     0.000     0.000     0.000     0.000     1.957     0.979   605.385   603.016     0.000     0.000     0.000     0.039     0.000     0.000   944.009  2000.005     0.000     0.005     0.000     0.198     0.000     1.298    97.256     1.150     5.600    -3.300     0.593    11.177     0.000     0.000     0.458   753.506    1.0955    0.8794    1.2485    2.4682    0.3519    0.4444    0.4516    0.0002    0.0000    0.0000    0.0002
CORN    1 000010001    1    0   60.61900E-01     3.000     0.000     0.000     0.000     0.336     0.165   603.016   604.434     0.000     0.000     0.000     0.007     0.000     0.000   944.002  2000.005     0.000     0.000     0.000     0.199     0.000     1.309    97.166     9.150    17.200     1.100     4.411     3.508     0.000     0.000     4.516   752.973    1.1096    4.2289    4.0837    3.8703    0.3543    0.4444    0.4516    0.0001    0.0000    0.0135    0.0000
CORN    1 000010001    1    0   61.61900E-01     0.000     0.000     0.000     0.000     4.890     2.437   604.434   601.143     0.000     0.000     0.000     0.098     0.000     0.000   943.904  2000.005     0.000     0.000     0.000     0.200     0.000     1.277    97.220     5.300    10.600     0.000     4.629    15.106     0.000     0.000     4.654   768.033    1.0778    4.6112    4.5983    4.6040    0.3523    0.4443    0.4499    0.0001    0.0000    0.0000    0.0000
CORN    1 000010001    1    0   62.61900E-01    13.200     0.000     0.000     0.000     1.366     0.680   601.143   605.797     0.000     0.000     0.000     0.027     0.000     0.000   943.877  2000.005     5.923     5.423     0.000     0.203     0.000     6.819    97.093     1.950    10.600    -6.700     4.007     8.362     0.264     0.054     3.942   722.980    1.1936    4.1294    4.2719    4.7113    0.3540    0.4444    0.4549    0.0001    0.0000    0.0376    0.2042
CORN    1 000010001    1    0   63.61900E-01     0.000     0.000     0.000     0.000     2.020     1.018   605.797   603.292     0.000     0.000     0.000     0.040     0.000     0.000   943.837  2000.005     0.000     0.458     0.000     0.203     0.000     1.866    97.271    -3.050     0.000    -6.100     2.978    15.981     0.000     0.000     2.856   746.883    1.2044    3.2220    3.5101    4.3864    0.3517    0.4441    0.4523    0.0001    0.0000    0.0000    0.0172
CORN    1 000010001    1    0   64.61900E-01     4.100     0.000     0.000     0.000     0.540     0.264   603.292   605.429     0.000     0.000     0.000     0.011     0.000     0.000   943.826  2000.005     0.000     0.039     0.000     0.205     0.000     1.493    97.176    -1.400     0.000    -2.800     2.198    12.310     0.000     0.000     2.051   735.644    1.2488    2.4939    2.8499    3.9590    0.3542    0.4444    0.4535    0.0001    0.0000    0.0199    0.0015
CORN    1 000010001    1    0   65.61900E-01     0.000     0.000     0.000     0.000     1.548     0.772   605.429   603.316     0.000     0.000     0.000     0.031     0.000     0.000   943.795  2000.005     0.000     0.003     0.000     0.206     0.000     1.427    97.257    -0.800     0.600    -2.200     1.829    17.890     0.000     0.000     1.690   756.815    1.2176    2.1193    2.4798    3.6316    0.3532    0.4444    0.4512    0.0001    0.0000    0.0000    0.0001
CORN    1 000010001    1    0   66.61900E-01     0.000     0.000     0.000     0.000     2.449     1.227   603.316   600.980     0.000     0.000     0.000     0.049     0.000     0.000   943.746  2000.005     0.000     0.000     0.000     0.206     0.000     1.353    97.177     0.550     2.800    -1.700     1.672    14.637     0.000     0.000     1.537   773.939    1.1464    1.9485    2.2959    3.4233    0.3505    0.4433    0.4493    0.0001    0.0000    0.0000    0.0000
CORN    1 000010001    1    0   67.61900E-01     0.000     0.000     0.000     0.000     3.179     1.590   600.980   598.456     0.000     0.000     0.000     0.064     0.000     0.000   943.682  2000.005     0.000     0.000     0.000     0.206     0.000     1.262    97.086     2.750     7.200    -1.700     1.884    17.454     0.000     0.000     1.770   788.152    1.0559    2.1163    2.4143    3.4065    0.3472    0.4409    0.4474    0.0001    0.0000    0.0000    0.0000
CORN    1 000010001    1    0   68.61900E-01     0.000     0.000     0.000     0.000     3.992     1.884   598.456   595.792     0.000     0.000     0.000     0.080     0.000     0.000   943.602  2000.005     0.000     0.000     0.000     0.205     0.000     1.160    96.985    10.850    16.100     5.600     3.351    15.267     0.000     0.000     3.328   801.910    0.9549    3.4090    3.5143    3.9630    0.3431    0.4380    0.4456    0.0001    0.0000    0.0000    0.0000
CORN    1 000010001    1    0   69.61900E-01     0.000     0.000     0.000     0.000     4.066     1.725   595.792   593.426     0.000     0.000     0.000     0.081     0.000     0.000   943.521  2000.005     0.000     0.000     0.000     0.204     0.000     1.054    96.874    16.700    21.700    11.700     5.629    14.331     0.000     0.000     5.714   815.475    0.8493    5.4835    5.3544    5.1019    0.3391    0.4351    0.4440    0.0001    0.0000    0.0000    0.0000
CORN    1 000010001    1    0   70.61900E-01    15.500     0.000     0.000     0.000     1.347     0.680   593.426   601.584     0.000     0.000     0.000     0.027     0.000     0.000   943.494  2000.005     5.687     5.207     0.000     0.205     0.000     6.235    96.773    16.650    21.100    12.200    10.963     2.877     0.196     0.215    11.337   788.650    0.8234   10.2992    9.5995    7.7030    0.3539    0.4444    0.4476    0.0001    0.0000    0.0366    0.1974
CORN    1 000010001    1    0   71.61900E-01    18.000     0.000     0.000     0.000     1.977     0.985   601.584   605.611     0.000     0.000     0.000     0.040     0.000     0.000   943.455  2000.005    10.991    10.503     0.000     0.209     0.000    11.714    97.110    10.300    15.000     5.600    10.904     9.596     0.751     0.064    11.057   721.049    1.0023   10.5859   10.1877    8.9265    0.3538    0.4444    0.4551    0.0001    0.0000    0.0425    0.3966
CORN    1 000010001    1    0   72.61900E-01     0.000     0.000     0.000     0.000     2.404     1.208   605.611   602.893     0.000     0.000     0.000     0.048     0.000     0.000   943.407  2000.005     0.000     0.887     0.000     0.209     0.000     2.157    97.264     6.950    11.100     2.800    10.291    14.657     0.000     0.000    10.357   745.400    1.0600   10.1494    9.9580    9.3079    0.3511    0.4433    0.4525    0.0001    0.0000    0.0000    0.0335
CORN    1 000010001    1    0   73.61900E-01     6.300     0.000     0.000     0.000     1.627     0.812   602.893   605.572     0.000     0.000     0.000     0.033     0.000     0.000   943.374  2000.005     0.914     0.911     0.000     0.212     0.000     2.297    97.161    12.750    17.200     8.300    10.889     8.774     0.058     0.021    10.984   724.498    1.1744   10.7010   10.4777    9.7924    0.3539    0.4444    0.4547    0.0001    0.0000    0.0261    0.0341
CORN    1 000010001    1    0   74.61900E-01     2.300     0.000     0.000     0.000     0.397     0.194   605.572   605.890     0.000     0.000     0.000     0.008     0.000     0.000   943.366  2000.005     0.000     0.077     0.000     0.213     0.000     1.537    97.263    12.750    17.200     8.300    11.558     4.872     0.000     0.000    11.661   729.364    1.2465   11.3511   11.1042   10.3507    0.3543    0.4444    0.4542    0.0001    0.0000    0.0117    0.0029
CORN    1 000010001    1    0   75.61900E-01    27.700     0.000     0.000     0.000     1.080     0.541   605.890   609.335     0.000     0.000     0.000     0.022     0.000     0.000   943.344  2000.005    20.586    18.854     0.000     0.218     0.000    20.637    97.275    13.850    18.300     9.400    12.431     4.409     1.812     0.299    12.551   665.029    1.5652   12.1865   11.8955   11.0122    0.3540    0.4444    0.4607    0.0001    0.0000    0.0443    0.7025
CORN    1 000010001    1    0   76.61900E-01     0.000     0.000     0.000     0.000     3.572     1.794   609.335   605.315     0.000     0.000     0.000     0.071     0.000     0.000   943.273  2000.005     0.000     1.592     0.000     0.220     0.000     3.458    97.400    13.300    17.200     9.400    12.607    13.496     0.000     0.000    12.698   703.637    1.6456   12.4190   12.1847   11.4449    0.3503    0.4443    0.4569    0.0001    0.0000    0.0000    0.0593
CORN    1 000010001    1    0   77.61900E-01     0.000     0.000     0.000     0.000     3.734     1.865   605.315   601.729     0.000     0.000     0.000     0.075     0.000     0.000   943.198  2000.005     0.000     0.134     0.000     0.221     0.000     1.959    97.253     9.450    15.600     3.300    12.132    15.073     0.000     0.000    12.173   732.128    1.6041   12.0453   11.9270   11.5154    0.3464    0.4415    0.4535    0.0001    0.0000    0.0000    0.0050
CORN    1 000010001    1    0   78.61900E-01     0.000     0.000     0.000     0.000     2.557     1.157   601.729   599.230     0.000     0.000     0.000     0.051     0.000     0.000   943.147  2000.005     0.000     0.011     0.000     0.221     0.000     1.727    97.116     7.750    14.400     1.100    11.443    14.621     0.000     0.000    11.441   756.772    1.4945   11.4431   11.4275   11.3304    0.3438    0.4396    0.4509    0.0001    0.0000    0.0000    0.0004
CORN    1 000010001    1    0   79.61900E-01     0.000     0.000     0.000     0.000     2.864     1.223   599.230   596.926     0.000     0.000     0.000     0.057     0.000     0.000   943.090  2000.005     0.000     0.001     0.000     0.221     0.000     1.578    97.016     5.550    11.100     0.000    10.563    15.558     0.000     0.000    10.516   776.139    1.3564   10.6471   10.7317   10.9438    0.3410    0.4376    0.4487    0.0001    0.0000    0.0000    0.0000
CORN    1 000010001    1    0   80.61900E-01     0.000     0.000     0.000     0.000     2.282     0.916   596.926   595.127     0.000     0.000     0.000     0.046     0.000     0.000   943.044  2000.005     0.000     0.000     0.000     0.220     0.000     1.430    96.922     1.150     5.600    -3.300     9.148    15.540     0.000     0.000     9.030   792.461    1.2095    9.3610    9.5926   10.2442    0.3389    0.4360    0.4469    0.0001    0.0000    0.0000    0.0000
CORN    1 000010001    1    0   81.61900E-01     0.000     0.000     0.000     0.000     3.099     1.195   595.127   593.193     0.000     0.000     0.000     0.062     0.000     0.000   942.982  2000.005     0.000     0.000     0.000     0.219     0.000     1.286    96.846     0.550     6.700    -5.600     7.929    16.552     0.000     0.000     7.775   805.739    1.0666    8.2088    8.5254    9.4604    0.3360    0.4338    0.4453    0.0001    0.0000    0.0000    0.0000
CORN    1 000010001    1    0   82.61900E-01     0.000     0.000     0.000     0.000     2.951     1.093   593.193   591.483     0.000     0.000     0.000     0.059     0.000     0.000   942.923  2000.005     0.000     0.000     0.000     0.218     0.000     1.150    96.763     2.200     9.400    -5.000     7.143    16.654     0.000     0.000     6.983   817.904    0.9318    7.4316    7.7670    8.7907    0.3333    0.4318    0.4438    0.0001    0.0000    0.0000    0.0000
CORN    1 000010001    1    0   83.61900E-01     0.000     0.000     0.000     0.000     2.849     1.026   591.483   589.936     0.000     0.000     0.000     0.057     0.000     0.000   942.866  2000.005     0.000     0.000     0.000     0.217     0.000     1.025    96.688     9.450    16.700     2.200     7.555    15.128     0.000     0.000     7.466   828.432    0.8083    7.7196    7.9284    8.6230    0.3307    0.4298    0.4430    0.0000    0.0000    0.0000    0.0000
CORN    1 000010001    1    0   84.61900E-01     0.000     0.000     0.000     0.000     4.224     1.455   589.936   588.028     0.000     0.000     0.000     0.084     0.000     0.000   942.782  2000.005     0.000     0.000     0.000     0.215     0.000     0.913    96.618    13.600    17.200    10.000     8.698    12.824     0.000     0.000     8.695   837.086    0.6983    8.7116    8.7529    8.9629    0.3271    0.4269    0.4425    0.0000    0.0000    0.0000    0.0000
CORN    1 000010001    1    0   85.61900E-01    14.200     0.000     0.000     0.000     0.887     0.453   588.028   598.688     0.000     0.000     0.000     0.018     0.000     0.000   942.764  2000.005     2.606     2.386     0.000     0.214     0.000     3.214    96.531     9.700    19.400     0.000     9.044     6.528     0.120     0.047     9.034   836.037    0.6142    9.0631    9.0953    9.2312    0.3541    0.4444    0.4434    0.0000    0.0000    0.0307    0.0875
CORN    1 000010001    1    0   86.61900E-01     0.000     0.000     0.000     0.000     2.292     1.140   598.688   597.148     0.000     0.000     0.000     0.046     0.000     0.000   942.718  2000.005     0.000     0.202     0.000     0.212     0.000     0.950    96.994     0.850     2.800    -1.100     7.873    16.298     0.000     0.000     7.781   844.229    0.5365    8.0574    8.2664    8.8816    0.3520    0.4443    0.4433    0.0000    0.0000    0.0000    0.0074
CORN    1 000010001    1    0   87.61900E-01     0.000     0.000     0.000     0.000     3.380     1.690   597.148   595.106     0.000     0.000     0.000     0.068     0.000     0.000   942.651  2000.005     0.000     0.017     0.000     0.211     0.000     0.694    96.931     6.650    13.300     0.000     7.722    15.985     0.000     0.000     7.648   851.362    0.4661    7.8720    8.0576    8.6529    0.3484    0.4418    0.4433    0.0000    0.0000    0.0000    0.0006
CORN    1 000010001    1    0   88.61900E-01    12.400     0.000     0.000     0.000     2.787     1.389   595.106   600.540     0.000     0.000     0.000     0.056     0.000     0.000   942.595  2000.005     4.634     4.244     0.000     0.212     0.000     4.969    96.845    14.200    22.800     5.600     8.912    13.150     0.289     0.011     8.924   793.649    0.5135    8.8966    8.9033    9.0047    0.3535    0.4444    0.4470    0.0000    0.0000    0.0360    0.1558
CORN    1 000010001    1    0   89.61900E-01     0.000     0.000     0.000     0.000     2.192     1.100   600.540   598.691     0.000     0.000     0.000     0.044     0.000     0.000   942.551  2000.005     0.000     0.358     0.000     0.211     0.000     1.096    97.069     3.050     7.800    -1.700     8.283    20.865     0.000     0.000     8.226   804.813    0.5265    8.3943    8.5233    8.9142    0.3511    0.4427    0.4457    0.0000    0.0000    0.0000    0.0132
CORN    1 000010001    1    0   90.61900E-01     0.000     0.000     0.000     0.000     3.581     1.795   598.691   596.247     0.000     0.000     0.000     0.072     0.000     0.000   942.479  2000.005     0.000     0.030     0.000     0.210     0.000     0.757    96.994     5.000    11.100    -1.100     7.722    12.828     0.000     0.000     7.641   814.657    0.5172    7.8812    8.0691    8.6473    0.3473    0.4401    0.4442    0.0000    0.0000    0.0000    0.0011
CORN    1 000010001    1    0   91.61900E-01     3.800     0.000     0.000     0.000     0.875     0.428   596.247   599.073     0.000     0.000     0.000     0.017     0.000     0.000   942.462  2000.005     0.000     0.003     0.000     0.209     0.000     0.701    96.893    12.500    20.000     5.000     8.826     9.741     0.000     0.000     8.834   825.735    0.4900    8.8180    8.8322    8.9500    0.3540    0.4444    0.4434    0.0000    0.0000    0.0086    0.0001
CORN    1 000010001    1    0   92.61900E-01    11.700     0.000     0.000     0.000     1.159     0.567   599.073   603.447     0.000     0.000     0.000     0.023     0.000     0.000   942.439  2000.005     5.411     4.954     0.000     0.211     0.000     5.777    97.010    12.250    18.900     5.600     9.632     9.809     0.387     0.084     9.662   762.057    0.6117    9.5735    9.5190    9.4025    0.3541    0.4444    0.4506    0.0000    0.0000    0.0377    0.1818
CORN    1 000010001    1    0   93.61900E-01     1.300     0.000     0.000     0.000     1.530     0.763   603.447   602.800     0.000     0.000     0.000     0.031     0.000     0.000   942.408  2000.005     0.000     0.418     0.000     0.211     0.000     1.317    97.182     7.250    13.900     0.600     8.969     6.895     0.000     0.000     8.931   768.990    0.6875    9.0435    9.1245    9.3545    0.3539    0.4444    0.4498    0.0000    0.0000    0.0061    0.0154
CORN    1 000010001    1    0   94.61900E-01     1.500     0.000     0.000     0.000     0.322     0.157   602.800   603.033     0.000     0.000     0.000     0.006     0.000     0.000   942.402  2000.005     0.000     0.035     0.000     0.211     0.000     0.978    97.157     0.850     6.700    -5.000     6.468     6.205     0.000     0.000     6.286   774.676    0.7316    6.8258    7.2251    8.3654    0.3543    0.4444    0.4492    0.0000    0.0000    0.0067    0.0013
CORN    1 000010001    1    0   95.61900E-01     0.000     0.000     0.000     0.000     3.294     1.641   603.033   600.465     0.000     0.000     0.000     0.066     0.000     0.000   942.336  2000.005     0.000     0.003     0.000     0.211     0.000     0.946    97.166     4.750    12.800    -3.300     6.247    17.766     0.000     0.000     6.125   788.663    0.7317    6.5011    6.8176    7.8245    0.3525    0.4443    0.4476    0.0000    0.0000    0.0000    0.0001
CORN    1 000010001    1    0   96.61900E-01     0.000     0.000     0.000     0.000     2.378     1.184   600.465   598.488     0.000     0.000     0.000     0.048     0.000     0.000   942.288  2000.005     0.000     0.000     0.000     0.210     0.000     0.916    97.066     2.200    10.000    -5.600     5.801    19.795     0.000     0.000     5.671   800.573    0.7053    6.0622    6.3817    7.3962    0.3499    0.4426    0.4461    0.0000    0.0000    0.0000    0.0000
CORN    1 000010001    1    0   97.61900E-01     0.000     0.000     0.000     0.000     2.421     1.178   598.488   596.632     0.000     0.000     0.000     0.048     0.000     0.000   942.240  2000.005     0.000     0.000     0.000     0.210     0.000     0.872    96.986     0.300     5.000    -4.400     5.226    21.405     0.000     0.000     5.080   811.738    0.6620    5.5126    5.8596    6.9556    0.3474    0.4408    0.4446    0.0000    0.0000    0.0000    0.0000
CORN    1 000010001    1    0   98.61900E-01    25.900     0.000     0.000     0.000     2.022     1.004   596.632   603.566     0.000     0.000     0.000     0.040     0.000     0.000   942.200  2000.005    16.491    15.098     0.000     0.212     0.000    16.081    96.909    10.550    18.300     2.800     6.086    16.028     1.000     0.194     6.021   753.402    0.7707    6.2185    6.4031    7.0621    0.3537    0.4444    0.4516    0.0000    0.0000    0.0442    0.5547
CORN    1 000010001    1    0   99.61900E-01     2.800     0.000     0.000     0.000     0.993     0.486   603.566   604.393     0.000     0.000     0.000     0.020     0.000     0.000   942.180  2000.005     0.000     1.275     0.000     0.213     0.000     2.358    97.187     1.950     6.100    -2.200     5.277    10.720     0.000     0.000     5.152   748.577    0.8698    5.5281    5.8299    6.7708    0.3541    0.4444    0.4521    0.0001    0.0000    0.0138    0.0469
CORN    1 000010001    1    0  100.61900E-01     3.800     0.000     0.000     0.000     0.275     0.135   604.393   605.914     0.000     0.000     0.000     0.006     0.000     0.000   942.174  2000.005     0.345     0.424     0.000     0.215     0.000     1.646    97.218    -0.550     3.900    -5.000     3.479     6.064     0.012     0.009     3.270   729.940    1.0073    3.9034    4.4022    5.9126    0.3543    0.4444    0.4541    0.0001    0.0000    0.0196    0.0154
CORN    1 000010001    1    0  101.61900E-01     0.500     0.000     0.000     0.000     0.118     0.058   605.914   604.875     0.000     0.000     0.000     0.002     0.000     0.000   942.172  2000.005     0.000     0.036     0.000     0.216     0.000     1.308    97.275    -0.850     2.200    -3.900     1.391     2.726     0.000     0.000     1.115   747.717    1.0568    1.9574    2.6304    4.6798    0.3544    0.4444    0.4522    0.0001    0.0000    0.0026    0.0013
CORN    1 000010001    1    0  102.61900E-01     3.300     0.000     0.000     0.000     0.224     0.109   604.875   605.920     0.000     0.000     0.000     0.004     0.000     0.000   942.167  2000.005     0.353     0.326     0.000     0.218     0.000     1.696    97.237     6.650    12.200     1.100     3.969     3.005     0.010     0.006     3.926   730.238    1.1519    4.0806    4.2774    5.0794    0.3543    0.4444    0.4541    0.0001    0.0000    0.0179    0.0118
CORN    1 000010001    1    0  103.61900E-01    19.800     0.000     0.000     0.000     0.626     0.306   605.920   609.231     0.000     0.000     0.000     0.013     0.000     0.000   942.155  2000.005    13.198    12.111     0.000     0.222     0.000    13.796    97.276     5.000    11.700    -1.700     4.426     4.626     0.683     0.051     4.362   671.075    1.4632    4.5620    4.7487    5.4068    0.3542    0.4444    0.4602    0.0002    0.0000    0.0402    0.4380
CORN    1 000010001    1    0  104.61900E-01     0.000     0.000     0.000     0.000     3.879     1.927   609.231   605.158     0.000     0.000     0.000     0.078     0.000     0.000   942.077  2000.005     0.000     1.023     0.000     0.224     0.000     2.796    97.396     5.000     9.400     0.600     4.576    17.354     0.000     0.000     4.505   707.913    1.5495    4.7267    4.9228    5.5809    0.3513    0.4443    0.4564    0.0002    0.0000    0.0000    0.0370
CORN    1 000010001    1    0  105.61900E-01     0.000     0.000     0.000     0.000     3.737     1.857   605.158   601.632     0.000     0.000     0.000     0.075     0.000     0.000   942.003  2000.005     0.000     0.086     0.000     0.224     0.000     1.829    97.247     7.200    12.200     2.200     4.990    19.363     0.000     0.000     4.934   735.319    1.5186    5.1062    5.2622    5.8049    0.3474    0.4416    0.4532    0.0002    0.0000    0.0000    0.0031
CORN    1 000010001    1    0  106.61900E-01     0.000     0.000     0.000     0.000     5.157     2.342   601.632   597.984     0.000     0.000     0.000     0.103     0.000     0.000   941.899  2000.005     0.000     0.007     0.000     0.224     0.000     1.652    97.112    10.000    15.600     4.400     5.693    20.056     0.000     0.000     5.666   759.324    1.4206    5.7490    5.8360    6.1743    0.3421    0.4378    0.4503    0.0002    0.0000    0.0000    0.0003
CORN    1 000010001    1    0  107.61900E-01     0.000     0.000     0.000     0.000     5.975     2.399   597.984   594.561     0.000     0.000     0.000     0.119     0.000     0.000   941.780  2000.005     0.000     0.001     0.000     0.224     0.000     1.512    96.965    15.300    21.700     8.900     7.092    17.821     0.000     0.000     7.135   780.579    1.2876    7.0210    6.9652    6.8875    0.3364    0.4336    0.4478    0.0001    0.0000    0.0000    0.0000
CORN    1 000010001    1    0  108.61900E-01     0.000     0.000     0.000     0.000     4.978     1.818   594.561   591.931     0.000     0.000     0.000     0.100     0.000     0.000   941.680  2000.005     0.000     0.000     0.000     0.223     0.000     1.365    96.822    16.350    23.300     9.400     8.469    17.514     0.000     0.000     8.559   798.950    1.1417    8.3151    8.1586    7.7591    0.3319    0.4301    0.4458    0.0001    0.0000    0.0000    0.0000
CORN    1 000010001    1    0  109.61900E-01     0.000     0.000     0.000     0.000     5.748     1.963   591.931   589.310     0.000     0.000     0.000     0.115     0.000     0.000   941.565  2000.005     0.000     0.000     0.000     0.222     0.000     1.220    96.707    17.500    25.600     9.400     9.712    19.527     0.000     0.000     9.835   813.756    0.9980    9.5050    9.2821    8.6619    0.3269    0.4263    0.4440    0.0001    0.0000    0.0000    0.0000
CORN    1 000010001    1    0  110.61900E-01     0.000     0.000     0.000     0.000     6.867     2.176   589.310   586.602     0.000     0.000     0.000     0.137     0.000     0.000   941.428  2000.005     0.000     0.000     0.000     0.220     0.000     1.082    96.590    19.450    27.200    11.700    11.066    18.993     0.000     0.000    11.233   827.290    0.8618   10.7913   10.4916    9.6328    0.3212    0.4218    0.4425    0.0001    0.0000    0.0000    0.0000
CORN    1 000010001    1    0  111.61900E-01     0.000     0.000     0.000     0.000     3.960     1.148   586.602   584.991     0.000     0.000     0.000     0.079     0.000     0.000   941.349  2000.005     0.000     0.000     0.000     0.219     0.000     0.961    96.464    14.150    18.900     9.400    11.536    23.659     0.000     0.000    11.674   835.678    0.7421   11.3149   11.0635   10.3059    0.3180    0.4193    0.4420    0.0001    0.0000    0.0000    0.0000
CORN    1 000010001    1    0  112.61900E-01     0.000     0.000     0.000     0.000     4.928     1.343   584.991   583.245     0.000     0.000     0.000     0.099     0.000     0.000   941.250  2000.005     0.000     0.000     0.000     0.217     0.000     0.854    96.388    17.500    24.400    10.600    12.372    20.120     0.000     0.000    12.534   843.931    0.6365   12.1160   11.8317   10.9885    0.3143    0.4162    0.4414    0.0000    0.0000    0.0000    0.0000
CORN    1 000010001    1    0  113.61900E-01     2.500     0.000     0.000     0.000     0.915     0.239   583.245   585.152     0.000     0.000     0.000     0.018     0.000     0.000   941.232  2000.005     0.000     0.000     0.000     0.215     0.000     0.760    96.303    14.700    17.200    12.200    12.923     9.761     0.000     0.000    13.079   851.114    0.5444   12.6780   12.4021   11.5709    0.3136    0.4299    0.4433    0.0000    0.0000    0.0000    0.0000
CORN    1 000010001    1    0  114.61900E-01     1.000     0.000     0.000     0.000     0.382     0.101   585.152   585.737     0.000     0.000     0.000     0.008     0.000     0.000   941.224  2000.005     0.000     0.000     0.000     0.214     0.000     0.678    96.395    10.850    17.800     3.900    12.006     3.494     0.000     0.000    12.038   857.414    0.4645   11.9497   11.8654   11.5455    0.3134    0.4392    0.4433    0.0000    0.0000    0.0000    0.0000
CORN    1 000010001    1    0  115.61900E-01     0.000     0.000     0.000     0.000     3.068     0.847   585.737   584.609     0.000     0.000     0.000     0.061     0.000     0.000   941.163  2000.005     0.000     0.000     0.000     0.212     0.000     0.607    96.423    10.250    14.400     6.100    11.802    15.906     0.000     0.000    11.829   863.005    0.3956   11.7579   11.7013   11.5043    0.3111    0.4370    0.4429    0.0000    0.0000    0.0000    0.0000
CORN    1 000010001    1    0  116.61900E-01     0.000     0.000     0.000     0.000     6.559     1.734   584.609   582.622     0.000     0.000     0.000     0.131     0.000     0.000   941.032  2000.005     0.000     0.000     0.000     0.210     0.000     0.546    96.369    13.900    21.700     6.100    12.176    16.077     0.000     0.000    12.237   868.019    0.3363   12.0799   11.9764   11.6699    0.3065    0.4324    0.4422    0.0000    0.0000    0.0000    0.0000
CORN    1 000010001    1    0  117.61900E-01     0.000     0.000     0.000     0.000     5.449     1.392   582.622   581.001     0.000     0.000     0.000     0.109     0.000     0.000   940.923  2000.005     0.000     0.000     0.000     0.208     0.000     0.493    96.272    21.150    26.700    15.600    13.402    19.402     0.000     0.000    13.553   872.535    0.2854   13.1696   12.9287   12.2471    0.3028    0.4287    0.4415    0.0000    0.0000    0.0000    0.0000
CORN    1 000010001    1    0  118.61900E-01     0.000     0.000     0.000     0.000     3.999     0.992   581.001   579.800     0.000     0.000     0.000     0.080     0.000     0.000   940.843  2000.005     0.000     0.000     0.000     0.206     0.000     0.448    96.192    15.800    27.200     4.400    13.805    21.872     0.000     0.000    13.937   876.625    0.2416   13.5993   13.3740   12.6981    0.3002    0.4260    0.4410    0.0000    0.0000    0.0000    0.0000
CORN    1 000010001    1    0  119.61900E-01     2.500     0.000     0.000     0.000     1.095     0.262   579.800   581.847     0.000     0.000     0.000     0.022     0.000     0.000   940.821  2000.005     0.000     0.000     0.000     0.204     0.000     0.408    96.131     9.700    15.000     4.400    13.253    15.184     0.000     0.000    13.301   880.343    0.2039   13.1736   13.0730   12.7260    0.2996    0.4369    0.4432    0.0000    0.0000    0.0000    0.0000
CORN    1 000010001    1    0  120.61900E-01     0.500     0.000     0.000     0.000     0.894     0.215   581.847   581.958     0.000     0.000     0.000     0.018     0.000     0.000   940.803  2000.005     0.000     0.000     0.000     0.203     0.000     0.374    96.234    11.400    15.600     7.200    12.769     7.459     0.000     0.000    12.779   883.727    0.1716   12.7501   12.7182   12.5840    0.2990    0.4407    0.4433    0.0000    0.0000    0.0000    0.0000
CORN    1 000010001    1    0  121.61900E-01     0.000     0.000     0.000     0.000     4.406     1.093   581.958   580.704     0.000     0.000     0.000     0.088     0.000     0.000   940.715  2000.005     0.000     0.000     0.000     0.201     0.000     0.344    96.240     9.700    14.400     5.000    12.514    21.406     0.000     0.000    12.515   886.834    0.1437   12.5098   12.4994   12.4457    0.2963    0.4375    0.4427    0.0000    0.0000    0.0000    0.0000
CORN    1 000010001    1    0  122.61900E-01     9.400     0.000     0.000     0.000     2.315     1.149   580.704   588.806     0.000     0.000     0.000     0.046     0.000     0.000   940.669  2000.005     0.000     0.000     0.000     0.199     0.000     0.318    96.177    11.950    15.000     8.900    12.465    12.523     0.000     0.000    12.472   889.709    0.1196   12.4517   12.4360   12.3801    0.3506    0.4427    0.4433    0.0000    0.0000    0.0012    0.0000
CORN    1 000010001    1    0  123.61900E-01    22.600     0.000     0.000     0.000     3.114     1.556   588.806   598.174     0.000     0.000     0.000     0.062     0.000     0.000   940.606  2000.005    11.048    10.115     0.000     0.200     0.000    10.495    96.567    15.550    22.800     8.300    13.146    10.038     0.516     0.166    13.209   825.760    0.1803   13.0380   12.9310   12.6235    0.3534    0.4443    0.4433    0.0000    0.0000    0.0649    0.3723
CORN    1 000010001    1    0  124.61900E-01     0.300     0.000     0.000     0.000     1.027     0.502   598.174   597.494     0.000     0.000     0.000     0.021     0.000     0.000   940.586  2000.005     0.000     0.854     0.000     0.198     0.000     1.267    96.973     9.450    12.200     6.700    12.486    12.030     0.000     0.000    12.476   833.766    0.2143   12.5021   12.5089   12.4916    0.3533    0.4437    0.4433    0.0000    0.0000    0.0011    0.0314
CORN    1 000010001    1    0  125.61900E-01     0.000     0.000     0.000     0.000     4.373     2.176   597.494   594.903     0.000     0.000     0.000     0.087     0.000     0.000   940.498  2000.005     0.000     0.072     0.000     0.197     0.000     0.497    96.945    10.000    14.400     5.600    12.243    21.423     0.000     0.000    12.231   842.261    0.2279   12.2656   12.2881   12.3421    0.3486    0.4404    0.4431    0.0000    0.0000    0.0000    0.0027
CORN    1 000010001    1    0  126.61900E-01     1.000     0.000     0.000     0.000     0.772     0.350   594.903   595.189     0.000     0.000     0.000     0.015     0.000     0.000   940.483  2000.005     0.000     0.006     0.000     0.196     0.000     0.430    96.836     8.600    13.900     3.300    11.399     8.984     0.000     0.000    11.340   849.647    0.2281   11.5077   11.6251   11.9506    0.3521    0.4438    0.4433    0.0000    0.0000    0.0000    0.0002
CORN    1 000010001    1    0  127.61900E-01     0.500     0.000     0.000     0.000     0.918     0.417   595.189   594.949     0.000     0.000     0.000     0.018     0.000     0.000   940.465  2000.005     0.000     0.001     0.000     0.195     0.000     0.415    96.849     7.750    16.100    -0.600    10.701    11.342     0.000     0.000    10.624   856.119    0.2198   10.8460   11.0105   11.4976    0.3534    0.4437    0.4433    0.0000    0.0000    0.0010    0.0000
CORN    1 000010001    1    0  128.61900E-01     0.000     0.000     0.000     0.000     4.001     1.809   594.949   592.853     0.000     0.000     0.000     0.080     0.000     0.000   940.385  2000.005     0.000     0.000     0.000     0.193     0.000     0.400    96.838    13.900    20.600     7.200    11.110    24.003     0.000     0.000    11.089   861.851    0.2064   11.1534   11.2156   11.4410    0.3491    0.4408    0.4428    0.0000    0.0000    0.0000    0.0000
CORN    1 000010001    1    0  129.61900E-01     0.000     0.000     0.000     0.000     6.399     2.665   592.853   589.929     0.000     0.000     0.000     0.128     0.000     0.000   940.257  2000.005     0.000     0.000     0.000     0.192     0.000     0.382    96.748    14.150    23.900     4.400    11.546    20.680     0.000     0.000    11.552   866.979    0.1901   11.5394   11.5403   11.5740    0.3425    0.4361    0.4420    0.0000    0.0000    0.0000    0.0000
CORN    1 000010001    1    0  130.61900E-01     0.000     0.000     0.000     0.000     3.914     1.451   589.929   588.245     0.000     0.000     0.000     0.078     0.000     0.000   940.178  2000.005     0.000     0.000     0.000     0.190     0.000     0.363    96.618    12.500    18.900     6.100    11.752    23.623     0.000     0.000    11.761   871.600    0.1725   11.7383   11.7261   11.7033    0.3387    0.4334    0.4415    0.0000    0.0000    0.0000    0.0000
CORN    1 000010001    1    0  131.61900E-01     5.800     0.000     0.000     0.000     2.675     1.328   588.245   592.504     0.000     0.000     0.000     0.053     0.000     0.000   940.125  2000.005     0.000     0.000     0.000     0.189     0.000     0.343    96.541    10.800    12.200     9.400    11.662    14.525     0.000     0.000    11.655   875.769    0.1545   11.6731   11.6850   11.7201    0.3509    0.4431    0.4434    0.0000    0.0000    0.0006    0.0000
CORN    1 000010001    1    0  132.61900E-01    18.500     0.000     0.000     0.000     2.769     1.354   592.504   599.816     0.000     0.000     0.000     0.055     0.000     0.000   940.070  2000.005     8.998     8.238     0.000     0.190     0.000     8.676    96.733    16.650    21.100    12.200    12.245    24.898     0.249     0.108    12.280   804.853    0.2468   12.1824   12.1191   11.9503    0.3536    0.4444    0.4457    0.0000    0.0000    0.0524    0.3035
CORN    1 000010001    1    0  133.61900E-01     0.000     0.000     0.000     0.000     6.287     3.125   599.816   596.039     0.000     0.000     0.000     0.126     0.000     0.000   939.944  2000.005     0.000     0.696     0.000     0.190     0.000     1.186    97.040    19.150    23.300    15.000    13.015    25.686     0.000     0.000    13.078   814.370    0.2999   12.8924   12.7545   12.3575    0.3468    0.4397    0.4445    0.0000    0.0000    0.0000    0.0256
CORN    1 000010001    1    0  134.61900E-01    17.800     0.000     0.000     0.000     1.720     0.841   596.039   602.914     0.000     0.000     0.000     0.034     0.000     0.000   939.909  2000.005     8.804     8.119     0.000     0.192     0.000     8.764    96.885    17.500    25.000    10.000    13.791    14.614     0.446     0.145    13.882   766.038    0.4527   13.6211   13.4269   12.8499    0.3539    0.4444    0.4502    0.0000    0.0000    0.0395    0.2976
SOYB    1 000010001    1    0  135.61900E-01     5.800     0.000     0.000     0.000     2.175     1.081   602.914   604.701     0.000     0.000     0.000     0.043     0.000     0.000   939.866  2000.005     1.194     1.779     0.000     0.195     0.000     2.641    97.162    12.750    18.300     7.200    13.397     4.531     0.000     0.020    13.426   734.238    0.6680   13.3332   13.2447   12.9359    0.3537    0.4444    0.4537    0.0000    0.0000    0.0153    0.0490
SOYB    1 000010001    1    0  136.61900E-01     0.000     0.000     0.000     0.000     3.235     1.631   604.701   601.712     0.000     0.000     0.000     0.065     0.000     0.000   939.801  2000.005     0.000     0.150     0.000     0.195     0.000     1.114    97.230     6.650    10.000     3.300    12.673    21.819     0.000     0.000    12.659   755.698    0.7685   12.6975   12.7117   12.7088    0.3503    0.4426    0.4513    0.0001    0.0000    0.0000    0.0041
SOYB    1 000010001    1    0  137.61900E-01     0.000     0.000     0.000     0.000     2.993     1.528   601.712   599.063     0.000     0.000     0.000     0.060     0.000     0.000   939.741  2000.005     0.000     0.013     0.000     0.196     0.000     1.008    97.115     5.550    11.700    -0.600    11.958    23.214     0.000     0.000    11.916   772.973    0.7991   12.0376   12.1210   12.3402    0.3473    0.4405    0.4491    0.0001    0.0000    0.0000    0.0003
SOYB    1 000010001    1    0  138.61900E-01     0.000     0.000     0.000     0.000     4.777     2.199   599.063   595.950     0.000     0.000     0.000     0.096     0.000     0.000   939.646  2000.005     0.000     0.001     0.000     0.196     0.000     0.978    97.009    11.100    17.200     5.000    11.917    21.897     0.000     0.000    11.895   789.814    0.7816   11.9581   12.0080   12.1614    0.3426    0.4371    0.4469    0.0001    0.0000    0.0000    0.0000
SOYB    1 000010001    1    0  139.61900E-01     4.300     0.000     0.000     0.000     0.836     0.436   595.950   599.073     0.000     0.000     0.000     0.017     0.000     0.000   939.629  2000.005     0.000     0.000     0.000     0.195     0.000     0.929    96.881    11.350    14.400     8.300    11.774     6.809     0.000     0.000    11.750   805.555    0.7338   11.8181   11.8693   12.0242    0.3535    0.4444    0.4456    0.0001    0.0000    0.0014    0.0000
SOYB    1 000010001    1    0  140.61900E-01     0.000     0.000     0.000     0.000     3.656     1.889   599.073   596.539     0.000     0.000     0.000     0.073     0.000     0.000   939.556  2000.005     0.000     0.000     0.000     0.195     0.000     0.873    97.010    11.100    18.300     3.900    11.742    20.678     0.000     0.000    11.726   814.979    0.6780   11.7752   11.8153   11.9429    0.3497    0.4424    0.4445    0.0001    0.0000    0.0000    0.0000
SOYB    1 000010001    1    0  141.61900E-01     0.000     0.000     0.000     0.000     6.801     3.139   596.539   592.831     0.000     0.000     0.000     0.136     0.000     0.000   939.420  2000.005     0.000     0.000     0.000     0.194     0.000     0.813    96.906    15.300    20.000    10.600    12.187    23.804     0.000     0.000    12.204   823.196    0.6196   12.1575   12.1307   12.0717    0.3428    0.4375    0.4428    0.0001    0.0000    0.0000    0.0000
SOYB    1 000010001    1    0  142.61900E-01     3.600     0.000     0.000     0.000     1.939     0.925   592.831   595.019     0.000     0.000     0.000     0.039     0.000     0.000   939.381  2000.005     0.000     0.000     0.000     0.193     0.000     0.751    96.747    16.150    20.600    11.700    12.880    14.622     0.000     0.000    12.935   832.585    0.5584   12.7836   12.6809   12.3943    0.3523    0.4430    0.4431    0.0001    0.0000    0.0008    0.0000
SOYB    1 000010001    1    0  143.61900E-01     0.500     0.000     0.000     0.000     2.179     0.959   595.019   594.139     0.000     0.000     0.000     0.044     0.000     0.000   939.338  2000.005     0.000     0.000     0.000     0.192     0.000     0.689    96.841    12.200    18.300     6.100    12.740     8.578     0.000     0.000    12.760   841.243    0.4973   12.7024   12.6533   12.4880    0.3521    0.4428    0.4431    0.0000    0.0000    0.0000    0.0000
SOYB    1 000010001    1    0  144.61900E-01     0.000     0.000     0.000     0.000     4.113     1.778   594.139   591.991     0.000     0.000     0.000     0.082     0.000     0.000   939.255  2000.005     0.000     0.000     0.000     0.190     0.000     0.630    96.804    14.450    22.200     6.700    13.008    21.113     0.000     0.000    13.044   848.748    0.4392   12.9420   12.8666   12.6369    0.3478    0.4399    0.4426    0.0000    0.0000    0.0000    0.0000
SOYB    1 000010001    1    0  145.61900E-01     0.000     0.000     0.000     0.000     7.426     2.771   591.991   588.893     0.000     0.000     0.000     0.149     0.000     0.000   939.107  2000.005     0.000     0.000     0.000     0.189     0.000     0.574    96.710    16.950    23.900    10.000    13.517    23.238     0.000     0.000    13.580   855.326    0.3852   13.4058   13.2813   12.9091    0.3405    0.4347    0.4418    0.0000    0.0000    0.0000    0.0000
SOYB    1 000010001    1    0  146.61900E-01     0.000     0.000     0.000     0.000     4.826     1.646   588.893   586.955     0.000     0.000     0.000     0.097     0.000     0.000   939.010  2000.005     0.000     0.000     0.000     0.188     0.000     0.524    96.571    20.300    26.700    13.900    14.437    19.989     0.000     0.000    14.552   861.147    0.3360   14.2426   14.0290   13.3978    0.3360    0.4314    0.4412    0.0000    0.0000    0.0000    0.0000
SOYB    1 000010001    1    0  147.61900E-01     0.000     0.000     0.000     0.000     7.671     2.454   586.955   584.238     0.000     0.000     0.000     0.153     0.000     0.000   938.857  2000.005     0.000     0.000     0.000     0.187     0.000     0.478    96.481    22.800    27.800    17.800    15.474    21.981     0.000     0.000    15.636   866.339    0.2918   15.2089   14.9150   14.0359    0.3293    0.4263    0.4403    0.0000    0.0000    0.0000    0.0000
SOYB    1 000010001    1    0  148.61900E-01     0.000     0.000     0.000     0.000     9.883     2.767   584.238   581.234     0.000     0.000     0.000     0.198     0.000     0.000   938.659  2000.005     0.000     0.000     0.000     0.185     0.000     0.438    96.352    21.400    26.700    16.100    16.214    23.877     0.000     0.000    16.395   871.003    0.2523   15.9291   15.6091   14.6329    0.3212    0.4201    0.4392    0.0000    0.0000    0.0000    0.0000
SOYB    1 000010001    1    0  149.61900E-01     0.000     0.000     0.000     0.000    10.128     2.633   581.234   578.386     0.000     0.000     0.000     0.203     0.000     0.000   938.457  2000.005     0.000     0.000     0.000     0.184     0.000     0.401    96.203    23.900    30.000    17.800    17.096    25.809     0.000     0.000    17.312   875.217    0.2172   16.7618   16.3922   15.2709    0.3135    0.4139    0.4381    0.0000    0.0000    0.0000    0.0000
SOYB    1 000010001    1    0  150.61900E-01     0.000     0.000     0.000     0.000     5.922     1.505   578.386   576.684     0.000     0.000     0.000     0.118     0.000     0.000   938.338  2000.005     0.000     0.000     0.000     0.183     0.000     0.369    96.058    23.300    28.300    18.300    17.878    23.741     0.000     0.000    18.115   879.045    0.1862   17.5128   17.1126   15.8952    0.3092    0.4105    0.4374    0.0000    0.0000    0.0000    0.0000
SOYB    1 000010001    1    0  151.61900E-01    22.100     0.000     0.000     0.000     2.287     1.183   576.684   591.959     0.000     0.000     0.000     0.046     0.000     0.000   938.292  2000.005     5.448     4.988     0.000     0.182     0.000     5.328    95.969    22.200    29.400    15.000    18.588    15.960     0.359     0.448    18.841   882.540    0.1588   18.2018   17.7796   16.4922    0.3176    0.4444    0.4434    0.0000    0.0000    0.0009    0.0041
SOYB    1 000010001    1    0  152.61900E-01     0.000     0.000     0.000     0.000     6.178     3.143   591.959   588.650     0.000     0.000     0.000     0.124     0.000     0.000   938.169  2000.005     0.000     0.421     0.000     0.180     0.000     0.736    96.709    21.950    28.900    15.000    19.092    21.239     0.000     0.000    19.256   885.743    0.1346   18.7492   18.3299   17.0270    0.3129    0.4399    0.4431    0.0000    0.0000    0.0000    0.0003
SOYB    1 000010001    1    0  153.61900E-01     0.000     0.000     0.000     0.000     8.197     3.421   588.650   585.076     0.000     0.000     0.000     0.164     0.000     0.000   938.005  2000.005     0.000     0.036     0.000     0.179     0.000     0.328    96.560    24.150    30.000    18.300    19.651    26.545     0.000     0.000    19.832   888.690    0.1134   19.2946   18.8640   17.5298    0.3069    0.4341    0.4422    0.0000    0.0000    0.0000    0.0000
SOYB    1 000010001    1    0  154.61900E-01     0.000     0.000     0.000     0.000     8.410     2.946   585.076   581.988     0.000     0.000     0.000     0.168     0.000     0.000   937.837  2000.005     0.000     0.003     0.000     0.177     0.000     0.275    96.392    23.600    30.000    17.200    20.131    24.691     0.000     0.000    20.328   891.410    0.0946   19.7663   19.3319   17.9869    0.3010    0.4284    0.4412    0.0000    0.0000    0.0000    0.0000
SOYB    1 000010001    1    0  155.61900E-01     0.000     0.000     0.000     0.000     7.863     2.468   581.988   579.389     0.000     0.000     0.000     0.157     0.000     0.000   937.679  2000.005     0.000     0.000     0.000     0.176     0.000     0.254    96.241    23.050    28.300    17.800    20.516    25.571     0.000     0.000    20.725   893.928    0.0780   20.1503   19.7194   18.3857    0.2957    0.4233    0.4403    0.0000    0.0000    0.0000    0.0000
SOYB    1 000010001    1    0  156.61900E-01     0.000     0.000     0.000     0.000     8.356     2.345   579.389   576.921     0.000     0.000     0.000     0.167     0.000     0.000   937.512  2000.005     0.000     0.000     0.000     0.175     0.000     0.238    96.110    23.050    28.900    17.200    20.873    26.006     0.000     0.000    21.095   896.267    0.0634   20.5036   20.0733   18.7459    0.2901    0.4181    0.4393    0.0000    0.0000    0.0000    0.0000
SOYB    1 000010001    1    0  157.61900E-01     7.400     0.000     0.000     0.000     2.292     0.713   576.921   583.494     0.000     0.000     0.000     0.046     0.000     0.000   937.466  2000.005     0.000     0.000     0.000     0.173     0.000     0.224    95.982    20.300    23.900    16.700    20.763    11.001     0.000     0.000    20.956   898.445    0.0505   20.4471   20.0754   18.9077    0.3126    0.4427    0.4431    0.0000    0.0000    0.0000    0.0000
SOYB    1 000010001    1    0  158.61900E-01     5.600     0.000     0.000     0.000     2.120     0.851   583.494   588.135     0.000     0.000     0.000     0.042     0.000     0.000   937.424  2000.005     0.000     0.000     0.000     0.172     0.000     0.211    96.315    20.550    25.000    16.100    20.720    10.760     0.000     0.000    20.902   900.476    0.0393   20.4291   20.0923   19.0108    0.3516    0.4428    0.4431    0.0000    0.0000    0.0000    0.0000
SOYB    1 000010001    1    0  159.61900E-01     0.000     0.000     0.000     0.000     6.644     2.342   588.135   585.686     0.000     0.000     0.000     0.133     0.000     0.000   937.291  2000.005     0.000     0.000     0.000     0.170     0.000     0.201    96.536    20.300    28.900    11.700    20.795    26.226     0.000     0.000    20.969   902.402    0.0306   20.5187   20.1941   19.1289    0.3438    0.4379    0.4423    0.0000    0.0000    0.0000    0.0000
SOYB    1 000010001    1    0  160.61900E-01     0.000     0.000     0.000     0.000     4.604     1.597   585.686   583.983     0.000     0.000     0.000     0.092     0.000     0.000   937.199  2000.005     0.000     0.000     0.000     0.169     0.000     0.193    96.421    14.150    20.000     8.300    20.286    27.200     0.000     0.000    20.411   904.311    0.0238   20.0869   19.8436   19.0106    0.3383    0.4345    0.4418    0.0000    0.0000    0.0000    0.0000
SOYB    1 000010001    1    0  161.61900E-01     0.000     0.000     0.000     0.000     5.564     1.837   583.983   582.040     0.000     0.000     0.000     0.111     0.000     0.000   937.088  2000.005     0.000     0.000     0.000     0.168     0.000     0.186    96.339    14.450    22.200     6.700    19.835    26.999     0.000     0.000    19.937   906.201    0.0186   19.6738   19.4774   18.8002    0.3321    0.4306    0.4412    0.0000    0.0000    0.0000    0.0000
SOYB    1 000010001    1    0  162.61900E-01     0.000     0.000     0.000     0.000     6.053     1.996   582.040   579.940     0.000     0.000     0.000     0.121     0.000     0.000   936.967  2000.005     0.000     0.000     0.000     0.166     0.000     0.181    96.244    19.450    25.000    13.900    19.940    30.358     0.000     0.000    20.073   908.074    0.0145   19.7366   19.5056   18.7554    0.3253    0.4263    0.4405    0.0000    0.0000    0.0000    0.0000
SOYB    1 000010001    1    0  163.61900E-01     0.000     0.000     0.000     0.000     6.887     2.051   579.940   577.786     0.000     0.000     0.000     0.138     0.000     0.000   936.829  2000.005     0.000     0.000     0.000     0.165     0.000     0.176    96.138    22.750    26.100    19.400    20.336    27.151     0.000     0.000    20.509   909.929    0.0113   20.0748   19.7897   18.8920    0.3185    0.4217    0.4397    0.0000    0.0000    0.0000    0.0000
SOYB    1 000010001    1    0  164.61900E-01     0.000     0.000     0.000     0.000     6.961     2.321   577.786   575.363     0.000     0.000     0.000     0.139     0.000     0.000   936.690  2000.005     0.000     0.000     0.000     0.164     0.000     0.173    96.027    27.500    32.800    22.200    21.150    27.852     0.000     0.000    21.389   911.767    0.0088   20.7948   20.4195   19.2682    0.3104    0.4168    0.4389    0.0000    0.0000    0.0000    0.0000
SOYB    1 000010001    1    0  165.61900E-01     0.000     0.000     0.000     0.000     7.026     1.971   575.363   573.290     0.000     0.000     0.000     0.141     0.000     0.000   936.549  2000.005     0.000     0.000     0.000     0.162     0.000     0.169    95.899    19.450    28.900    10.000    21.108    27.445     0.000     0.000    21.312   913.587    0.0068   20.8033   20.4748   19.4298    0.3032    0.4121    0.4380    0.0000    0.0000    0.0000    0.0000
SOYB    1 000010001    1    0  166.61900E-01     0.000     0.000     0.000     0.000     5.183     1.466   573.290   571.724     0.000     0.000     0.000     0.104     0.000     0.000   936.446  2000.005     0.000     0.000     0.000     0.161     0.000     0.166    95.786    21.700    27.800    15.600    21.278    26.442     0.000     0.000    21.494   915.391    0.0053   20.9601   20.6252   19.5753    0.2975    0.4085    0.4374    0.0000    0.0000    0.0000    0.0000
[...]
CORN    1 000010001    1    0  324.61900E-01     0.300     0.000     0.000     0.000     0.875     0.437   574.459   574.274     0.000     0.000     0.000     0.017     0.000     0.000   787.369  2000.005     0.000     0.000     0.000     0.054     0.000     0.054    95.850     5.550    12.200    -1.100     6.234     3.198     0.000     0.000     6.110   992.149    0.0000    6.4809    6.7742    7.6808    0.3292    0.4437    0.4432    0.0000    0.0000    0.0000    0.0000
CORN    1 000010001    1    0  325.61900E-01    10.800     0.000     0.000     0.000     0.138     0.073   574.274   583.571     0.000     0.000     0.000     0.003     0.000     0.000   787.366  2000.005     1.268     1.161     0.000     0.056     0.000     1.217    95.840     5.000     7.800     2.200     5.746     3.622     0.025     0.055     5.616   991.434    0.0000    6.0022    6.3080    7.2608    0.3544    0.4444    0.4434    0.0000    0.0000    0.0000    0.0089
CORN    1 000010001    1    0  326.61900E-01     0.000     0.000     0.000     0.000     1.372     0.726   583.571   582.793     0.000     0.000     0.000     0.027     0.000     0.000   787.339  2000.005     0.000     0.098     0.000     0.056     0.000     0.154    96.319     6.350     9.400     3.300     5.921     8.131     0.000     0.000     5.836   991.444    0.0000    6.1018    6.3352    7.1119    0.3538    0.4444    0.4434    0.0000    0.0000    0.0000    0.0008
CORN    1 000010001    1    0  327.61900E-01     0.000     0.000     0.000     0.000     1.016     0.538   582.793   582.203     0.000     0.000     0.000     0.020     0.000     0.000   787.319  2000.005     0.000     0.008     0.000     0.056     0.000     0.064    96.281     3.900     7.800     0.000     5.391     7.208     0.000     0.000     5.276   991.454    0.0000    5.6246    5.9097    6.8152    0.3526    0.4441    0.4434    0.0000    0.0000    0.0000    0.0001
CORN    1 000010001    1    0  328.61900E-01     0.000     0.000     0.000     0.000     1.712     0.924   582.203   581.228     0.000     0.000     0.000     0.034     0.000     0.000   787.284  2000.005     0.000     0.001     0.000     0.056     0.000     0.057    96.252     4.150    10.000    -1.700     5.101     8.123     0.000     0.000     4.987   991.465    0.0000    5.3328    5.6197    6.5430    0.3506    0.4429    0.4434    0.0000    0.0000    0.0000    0.0000
CORN    1 000010001    1    0  329.61900E-01     0.000     0.000     0.000     0.000     1.128     0.609   581.228   580.566     0.000     0.000     0.000     0.023     0.000     0.000   787.262  2000.005     0.000     0.000     0.000     0.056     0.000     0.056    96.203    -1.100     2.200    -4.400     3.696     9.286     0.000     0.000     3.507   991.475    0.0000    4.0673    4.5048    5.8476    0.3493    0.4420    0.4433    0.0000    0.0000    0.0000    0.0000
CORN    1 000010001    1    0  330.61900E-01     4.000     0.000     0.000     0.000     0.116     0.062   580.566   584.419     0.000     0.000     0.000     0.002     0.000     0.000   787.259  2000.005     0.000     0.000     0.000     0.056     0.000     0.056    96.170     0.250     4.400    -3.900     2.563     5.338     0.000     0.000     2.349   991.268    0.0000    2.9848    3.4891    5.0601    0.3544    0.4444    0.4434    0.0000    0.0000    0.0000    0.0000
CORN    1 000010001    1    0  331.61900E-01     0.000     0.000     0.000     0.000     2.487     1.336   584.419   583.030     0.000     0.000     0.000     0.050     0.000     0.000   787.210  2000.005     0.000     0.000     0.000     0.056     0.000     0.056    96.360     1.150     5.600    -3.300     2.155     6.112     0.000     0.000     1.975   991.279    0.0000    2.5304    2.9985    4.5052    0.3533    0.4444    0.4434    0.0000    0.0000    0.0000    0.0000
CORN    1 000010001    1    0  332.61900E-01     0.000     0.000     0.000     0.000     0.859     0.455   583.030   582.522     0.000     0.000     0.000     0.017     0.000     0.000   787.192  2000.005     0.000     0.000     0.000     0.056     0.000     0.056    96.293    -5.250    -1.100    -9.400     0.415     8.798     0.000     0.000     0.149   991.289    0.0000    0.9439    1.5751    3.5338    0.3523    0.4437    0.4433    0.0000    0.0000    0.0000    0.0000
CORN    1 000010001    1    0  333.61900E-01     0.000     0.000     0.000     0.000     1.164     0.628   582.522   581.842     0.000     0.000     0.000     0.023     0.000     0.000   787.169  2000.005     0.000     0.000     0.000     0.056     0.000     0.056    98.833    -6.400    -2.800   -10.000    -1.344     7.759     0.000     0.000    -1.658   991.289    0.0000   -0.7209    0.0261    2.3551    0.3509    0.4428    0.4433    0.0000    0.0000    0.0000    0.0000
CORN    1 000010001    1    0  334.61900E-01     0.000     0.000     0.000     0.000     2.160     1.161   581.842   580.628     0.000     0.000     0.000     0.043     0.000     0.000   787.126  2000.005     0.000     0.000     0.000     0.056     0.000     0.056    98.833    -1.400     4.400    -7.200    -1.299     8.526     0.000     0.000    -1.550   991.289    0.0000   -0.8033   -0.1973    1.7867    0.3485    0.4410    0.4430    0.0000    0.0000    0.0000    0.0000
CORN    1 000010001    1    0  335.61900E-01     4.200     0.000     0.000     0.000     0.421     0.223   580.628   584.535     0.000     0.000     0.000     0.008     0.000     0.000   787.117  2000.005     0.000     0.000     0.000     0.056     0.000     0.056    96.173     6.150    11.700     0.600     1.810     4.036     0.000     0.000     1.778   991.213    0.0000    1.8853    2.0284    2.6905    0.3543    0.4444    0.4434    0.0000    0.0000    0.0000    0.0000
CORN    1 000010001    1    0  336.61900E-01     0.200     0.000     0.000     0.000     0.232     0.123   584.535   584.824     0.000     0.000     0.000     0.005     0.000     0.000   787.113  2000.005     0.000     0.000     0.000     0.056     0.000     0.056    96.366     6.650     9.400     3.900     3.272     6.655     0.000     0.000     3.310   991.174    0.0000    3.2172    3.2289    3.5644    0.3543    0.4444    0.4434    0.0000    0.0000    0.0000    0.0000
CORN    1 000010001    1    0  337.61900E-01     0.000     0.000     0.000     0.000     1.263     0.680   584.824   584.965     0.000     0.000     0.000     0.025     0.000     0.000   787.088  2000.005     0.000     0.000     0.000     0.057     0.000     0.057    96.380     5.250     9.400     1.100     4.154     3.776     0.000     0.000     4.170   991.037    0.0000    4.1518    4.1732    4.3325    0.3540    0.4444    0.4434    0.0000    0.0000    0.0000    0.0000
CORN    1 000010001    1    0  338.61900E-01     0.000     0.000     0.000     0.000     1.123     0.615   584.965   584.295     0.000     0.000     0.000     0.022     0.000     0.000   787.065  2000.005     0.000     0.000     0.000     0.057     0.000     0.057    96.387     3.300     7.200    -0.600     3.908     5.445     0.000     0.000     3.856   991.048    0.0000    4.0148    4.1469    4.5827    0.3526    0.4442    0.4433    0.0000    0.0000    0.0000    0.0000
CORN    1 000010001    1    0  339.61900E-01     1.500     0.000     0.000     0.000     0.135     0.072   584.295   585.663     0.000     0.000     0.000     0.003     0.000     0.000   787.062  2000.005     0.000     0.000     0.000     0.057     0.000     0.057    96.354     1.900     4.400    -0.600     3.319     6.226     0.000     0.000     3.224   991.020    0.0000    3.5122    3.7443    4.4754    0.3544    0.4444    0.4434    0.0000    0.0000    0.0000    0.0000
CORN    1 000010001    1    0  340.61900E-01     0.000     0.000     0.000     0.000     1.024     0.542   585.663   585.067     0.000     0.000     0.000     0.020     0.000     0.000   787.042  2000.005     0.000     0.000     0.000     0.057     0.000     0.057    96.420    -0.550     2.200    -3.300     2.313     7.704     0.000     0.000     2.171   991.030    0.0000    2.6058    2.9562    4.0447    0.3539    0.4444    0.4434    0.0000    0.0000    0.0000    0.0000
CORN    1 000010001    1    0  341.61900E-01     0.000     0.000     0.000     0.000     0.538     0.285   585.067   584.727     0.000     0.000     0.000     0.011     0.000     0.000   787.031  2000.005     0.000     0.000     0.000     0.057     0.000     0.057    96.391     0.550     4.400    -3.300     1.694     4.602     0.000     0.000     1.541   991.041    0.0000    2.0077    2.3919    3.6129    0.3533    0.4444    0.4434    0.0000    0.0000    0.0000    0.0000
CORN    1 000010001    1    0  342.61900E-01     0.000     0.000     0.000     0.000     0.995     0.538   584.727   584.135     0.000     0.000     0.000     0.020     0.000     0.000   787.011  2000.005     0.000     0.000     0.000     0.057     0.000     0.057    96.375     5.550    10.000     1.100     3.344     3.871     0.000     0.000     3.316   991.052    0.0000    3.4137    3.5388    4.0609    0.3521    0.4441    0.4434    0.0000    0.0000    0.0000    0.0000
CORN    1 000010001    1    0  343.61900E-01     8.100     0.000     0.000     0.000     0.071     0.038   584.135   590.243     0.000     0.000     0.000     0.001     0.000     0.000   787.010  2000.005     1.758     1.609     0.000     0.060     0.000     1.669    96.347     9.200    12.800     5.600     6.743     1.968     0.119     0.021     6.886   990.120    0.0000    6.4747    6.2127    5.5957    0.3544    0.4444    0.4434    0.0000    0.0000    0.0000    0.0136
CORN    1 000010001    1    0  344.61900E-01     0.000     0.000     0.000     0.000     0.784     0.415   590.243   589.768     0.000     0.000     0.000     0.016     0.000     0.000   786.994  2000.005     0.000     0.136     0.000     0.060     0.000     0.196    96.632     6.950    13.900     0.000     6.849     6.579     0.000     0.000     6.891   990.131    0.0000    6.7617    6.6570    6.3512    0.3541    0.4444    0.4434    0.0000    0.0000    0.0000    0.0011
CORN    1 000010001    1    0  345.61900E-01     0.300     0.000     0.000     0.000     0.137     0.072   589.768   589.936     0.000     0.000     0.000     0.003     0.000     0.000   786.991  2000.005     0.000     0.011     0.000     0.060     0.000     0.071    96.611     0.550     2.200    -1.100     3.443     2.251     0.000     0.000     3.247   990.143    0.0000    3.8267    4.2402    5.3847    0.3543    0.4444    0.4434    0.0000    0.0000    0.0000    0.0001
CORN    1 000010001    1    0  346.61900E-01     0.000     0.000     0.000     0.000     0.744     0.394   589.936   589.482     0.000     0.000     0.000     0.015     0.000     0.000   786.977  2000.005     0.000     0.001     0.000     0.060     0.000     0.061    96.618    -1.650     1.100    -4.400     1.892     6.330     0.000     0.000     1.684   990.155    0.0000    2.3167    2.8206    4.3589    0.3537    0.4444    0.4434    0.0000    0.0000    0.0000    0.0000
CORN    1 000010001    1    0  347.61900E-01     0.000     0.000     0.000     0.000     1.254     0.674   589.482   588.749     0.000     0.000     0.000     0.025     0.000     0.000   786.951  2000.005     0.000     0.000     0.000     0.060     0.000     0.060    96.598     0.550     7.800    -6.700     1.512     6.276     0.000     0.000     1.338   990.167    0.0000    1.8719    2.3193    3.7558    0.3523    0.4443    0.4434    0.0000    0.0000    0.0000    0.0000
CORN    1 000010001    1    0  348.61900E-01     0.000     0.000     0.000     0.000     0.907     0.480   588.749   588.209     0.000     0.000     0.000     0.018     0.000     0.000   786.933  2000.005     0.000     0.000     0.000     0.060     0.000     0.060    96.564    -0.550     5.000    -6.100     0.929     6.304     0.000     0.000     0.744   990.179    0.0000    1.3038    1.7659    3.2447    0.3513    0.4437    0.4434    0.0000    0.0000    0.0000    0.0000
CORN    1 000010001    1    0  349.61900E-01     0.000     0.000     0.000     0.000     1.918     1.031   588.209   587.119     0.000     0.000     0.000     0.038     0.000     0.000   786.895  2000.005     0.000     0.000     0.000     0.060     0.000     0.060    96.539     1.350     8.300    -5.600     1.105     6.397     0.000     0.000     0.959   990.190    0.0000    1.4054    1.7884    3.0581    0.3491    0.4422    0.4433    0.0000    0.0000    0.0000    0.0000
CORN    1 000010001    1    0  350.61900E-01     0.000     0.000     0.000     0.000     1.385     0.754   587.119   586.305     0.000     0.000     0.000     0.028     0.000     0.000   786.867  2000.005     0.000     0.000     0.000     0.060     0.000     0.060    96.489     5.000    12.200    -2.200     2.615     4.645     0.000     0.000     2.569   990.202    0.0000    2.7203    2.8867    3.5390    0.3475    0.4411    0.4431    0.0000    0.0000    0.0000    0.0000
CORN    1 000010001    1    0  351.61900E-01     6.100     0.000     0.000     0.000     0.000     0.000   586.305   592.270     0.000     0.000     0.000     0.000     0.000     0.000   786.867  2000.005     0.000     0.000     0.000     0.061     0.000     0.061    96.450     6.950    11.100     2.800     5.608     1.192     0.000     0.000     5.715   965.124    0.0000    5.4189    5.2492    4.9098    0.3544    0.4444    0.4434    0.0000    0.0000    0.0000    0.0000
CORN    1 000010001    1    0  352.61900E-01     0.300     0.000     0.000     0.000     0.246     0.130   592.270   592.357     0.000     0.000     0.000     0.005     0.000     0.000   786.862  2000.005     0.000     0.000     0.000     0.062     0.000     0.062    96.722     4.700     9.400     0.000     5.222     3.147     0.000     0.000     5.207   961.215    0.0000    5.2493    5.2801    5.3852    0.3543    0.4444    0.4434    0.0000    0.0000    0.0000    0.0000
CORN    1 000010001    1    0  353.61900E-01     0.000     0.000     0.000     0.000     0.862     0.456   592.357   591.825     0.000     0.000     0.000     0.017     0.000     0.000   786.845  2000.005     0.000     0.000     0.000     0.062     0.000     0.062    96.726    -1.400     2.200    -5.000     3.134     5.958     0.000     0.000     2.980   962.573    0.0000    3.4413    3.7875    4.7957    0.3539    0.4444    0.4434    0.0000    0.0000    0.0000    0.0000
CORN    1 000010001    1    0  354.61900E-01     0.000     0.000     0.000     0.000     0.348     0.184   591.825   591.566     0.000     0.000     0.000     0.007     0.000     0.000   786.838  2000.005     0.000     0.000     0.000     0.062     0.000     0.062    96.703    -1.650     1.100    -4.400     1.769     6.863     0.000     0.000     1.580   963.918    0.0000    2.1529    2.6087    4.0095    0.3535    0.4444    0.4434    0.0000    0.0000    0.0000    0.0000
CORN    1 000010001    1    0  355.61900E-01     0.000     0.000     0.000     0.000     0.740     0.392   591.566   591.101     0.000     0.000     0.000     0.015     0.000     0.000   786.823  2000.005     0.000     0.000     0.000     0.063     0.000     0.063    96.691     1.700     6.700    -3.300     1.783     6.085     0.000     0.000     1.642   965.250    0.0000    2.0761    2.4475    3.6639    0.3526    0.4443    0.4434    0.0000    0.0000    0.0000    0.0000
CORN    1 000010001    1    0  356.61900E-01     0.600     0.000     0.000     0.000     0.145     0.077   591.101   591.550     0.000     0.000     0.000     0.003     0.000     0.000   786.820  2000.005     0.000     0.000     0.000     0.063     0.000     0.063    96.671     5.250     8.300     2.200     2.918     6.089     0.000     0.000     2.859   966.570    0.0000    3.0481    3.2389    3.9452    0.3542    0.4444    0.4434    0.0000    0.0000    0.0000    0.0000
CORN    1 000010001    1    0  357.61900E-01     4.700     0.000     0.000     0.000     0.062     0.033   591.550   595.590     0.000     0.000     0.000     0.001     0.000     0.000   786.819  2000.005     0.450     0.412     0.000     0.065     0.000     0.477    96.691     6.100     7.800     4.400     4.559     2.708     0.024     0.004     4.575   904.925    0.0000    4.5371    4.5478    4.7062    0.3544    0.4444    0.4434    0.0000    0.0000    0.0000    0.0037
CORN    1 000010001    1    0  358.61900E-01     0.000     0.000     0.000     0.000     1.953     1.049   595.590   594.436     0.000     0.000     0.000     0.039     0.000     0.000   786.780  2000.005     0.000     0.035     0.000     0.066     0.000     0.101    96.866     6.400     7.800     5.000     5.108     7.342     0.000     0.000     5.107   906.810    0.0000    5.1142    5.1368    5.2669    0.3536    0.4444    0.4434    0.0000    0.0000    0.0000    0.0003
CORN    1 000010001    1    0  359.61900E-01     0.600     0.000     0.000     0.000     0.092     0.048   594.436   594.883     0.000     0.000     0.000     0.002     0.000     0.000   786.778  2000.005     0.000     0.003     0.000     0.067     0.000     0.070    96.816     9.450    11.700     7.200     7.178     3.040     0.000     0.000     7.276   908.681    0.0000    6.9929    6.8053    6.3399    0.3543    0.4444    0.4434    0.0000    0.0000    0.0000    0.0000
CORN    1 000010001    1    0  360.61900E-01     4.100     0.000     0.000     0.000     0.043     0.023   594.883   598.256     0.000     0.000     0.000     0.001     0.000     0.000   786.777  2000.005     0.301     0.276     0.000     0.070     0.000     0.391    96.836    11.350    14.400     8.300     9.568     1.967     0.010     0.003     9.741   853.549    0.0455    9.2277    8.8505    7.7909    0.3544    0.4444    0.4434    0.0000    0.0000    0.0052    0.0025
CORN    1 000010001    1    0  361.61900E-01     0.300     0.000     0.000     0.000     0.039     0.021   598.256   598.199     0.000     0.000     0.000     0.001     0.000     0.000   786.777  2000.005     0.000     0.023     0.000     0.071     0.000     0.174    96.977     6.650    12.200     1.100     7.697     1.509     0.000     0.000     7.666   854.735    0.0793    7.7480    7.7751    7.7640    0.3544    0.4444    0.4434    0.0000    0.0000    0.0004    0.0002
CORN    1 000010001    1    0  362.61900E-01     6.200     0.000     0.000     0.000     0.704     0.373   598.199   601.418     0.000     0.000     0.000     0.014     0.000     0.000   786.763  2000.005     1.689     1.548     0.000     0.075     0.000     1.831    96.974     5.300     8.900     1.700     6.952     6.271     0.081     0.008     6.899   795.699    0.2077    7.0567    7.1734    7.5039    0.3542    0.4444    0.4468    0.0001    0.0000    0.0070    0.0142
CORN    1 000010001    1    0  363.61900E-01     0.000     0.000     0.000     0.000     0.867     0.459   601.418   600.228     0.000     0.000     0.000     0.017     0.000     0.000   786.745  2000.005     0.000     0.131     0.000     0.077     0.000     0.493    97.103     3.350     6.100     0.600     5.830     6.092     0.000     0.000     5.726   806.477    0.2850    6.0388    6.2797    6.9927    0.3534    0.4444    0.4455    0.0001    0.0000    0.0000    0.0012
CORN    1 000010001    1    0  364.61900E-01     0.300     0.000     0.000     0.000     0.860     0.455   600.228   599.435     0.000     0.000     0.000     0.017     0.000     0.000   786.728  2000.005     0.000     0.011     0.000     0.079     0.000     0.417    97.056     1.100     2.200     0.000     3.532     2.778     0.000     0.000     3.318   815.779    0.3270    3.9571    4.4454    5.8896    0.3534    0.4443    0.4444    0.0001    0.0000    0.0003    0.0001
CORN    1 000010001    1    0  365.61900E-01     1.100     0.000     0.000     0.000     0.000     0.000   599.435   599.958     0.000     0.000     0.000     0.000     0.000     0.000   786.728  2000.005     0.000     0.001     0.000     0.081     0.000     0.429    97.024     1.950     3.900     0.000     2.394     0.605     0.000     0.000     2.183   822.474    0.3475    2.8227    3.3390    4.9454    0.3544    0.4444    0.4436    0.0001    0.0000    0.0007    0.0000
