1
    SWAT Jan 13 2025   VER kalcic-nifafrozen                                                             0/ 0/   0      0: 0: 0

    General Input/Output section (file.cio):                                        
    8/10/2023 12:00:00 AM ARCGIS-SWAT interface AV                                  
                                                                                    


       SUB      GIS  MON   AREAkm2  PRECIPmm SNOMELTmm     PETmm      ETmm      SWmm    PERCmm    SURQmm    GW_Qmm    WYLDmm SolT_degCSolT50degCSol100degC LAT Q(mm) SEDPkg/haLATNO3kg/hGWNO3kg/ha TNO3kg/ha TVAPkg/ha  SYLDt/ha ORGNkg/ha ORGPkg/haNSURQkg/ha SOLPkg/ha  QTILE mm
BIGSUB   1        0    1.61900E-01     0.000     0.000     1.057     0.529   451.179     0.000     0.274     0.000     0.355     1.634     2.113     2.535     0.081     0.012     0.000     0.000      0.000     0.070     0.000     0.038     0.005     0.000     0.000     0.000
BIGSUB   1        0    2.61900E-01     0.000     0.000     0.948     0.477   450.641     0.000     0.068     0.000     0.149     0.377     0.882     1.327     0.080     0.003     0.000     0.000      0.000     0.070     0.000     0.009     0.001     0.000     0.000     0.000
BIGSUB   1        0    3.61900E-01     0.000     0.000     1.175     0.588   449.993     0.000     0.017     0.000     0.097    -0.057     0.401     0.805     0.080     0.001     0.000     0.000      0.000     0.070     0.000     0.002     0.000     0.000     0.000     0.000
BIGSUB   1        0    4.61900E-01     0.300     0.000     0.107     0.053   449.880     0.000     0.004     0.000     0.084    -0.921    -0.429     0.001     0.079     0.000     0.000     0.000      0.000     0.070     0.000     0.001     0.000     0.000     0.000     0.000
BIGSUB   1        0    5.61900E-01     0.000     0.000     0.094     0.046   449.774     0.000     0.001     0.000     0.080    -2.641    -2.033    -1.508     0.079     0.000     0.000     0.000      0.000     0.070     0.000     0.000     0.000     0.000     0.000     0.000
BIGSUB   1        0    6.61900E-01     0.000     0.000     0.695     0.340   449.374     0.000     0.000     0.000     0.079    -2.356    -1.850    -1.413     0.079     0.000     0.000     0.000      0.000     0.070     0.000     0.000     0.000     0.000     0.000     0.000
BIGSUB   1        0    7.61900E-01     0.000     0.000     0.363     0.178   449.136     0.000     0.000     0.000     0.079    -0.435    -0.166     0.069     0.078     0.000     0.000     0.000      0.000     0.070     0.000     0.000     0.000     0.000     0.000     0.000
BIGSUB   1        0    8.61900E-01     0.500     0.800     0.449     0.220   449.656     0.000     0.000     0.000     0.078     1.060     1.180     1.290     0.078     0.000     0.000     0.000      0.000     0.070     0.000     0.000     0.000     0.000     0.000     0.000
BIGSUB   1        0    9.61900E-01    10.200     0.000     0.529     0.277   453.090     0.270     0.544     0.000     3.148     4.400     4.187     4.018     0.081     0.016     0.000     0.000      0.003     0.070     0.021     0.051     0.006     0.000     0.000     2.523
BIGSUB   1        0   10.61900E-01    23.900     0.000     0.567     0.278   453.089     0.014    12.038     0.000    16.932     4.066     4.015     3.983     0.086     0.535     0.000     0.000      0.004     0.070     0.744     1.666     0.204     0.001     0.000     4.807
BIGSUB   1        0   11.61900E-01     1.500     0.000     0.000     0.000   453.029     0.000     3.000     0.000     3.086    -1.587    -0.962    -0.411     0.085     0.133     0.000     0.000      0.000     0.070     0.000     0.415     0.051     0.000     0.000     0.000
BIGSUB   1        0   12.61900E-01     2.500     0.000     0.419     0.209   452.759     0.000     0.748     0.000     0.833    -7.971    -3.139    -2.551     0.084     0.033     0.000     0.000      0.000     0.070     0.000     0.104     0.013     0.000     0.000     0.000
BIGSUB   1        0   13.61900E-01     1.000     0.000     0.000     0.000   452.698     0.000     0.186     0.000     0.271   -10.669    -2.369    -1.944     0.084     0.008     0.000     0.000      0.000     0.070     0.000     0.026     0.003     0.000     0.000     0.000
BIGSUB   1        0   14.61900E-01     0.500     0.000     0.347     0.174   452.464     0.000     0.046     0.000     0.130   -10.523    -1.978    -1.620     0.083     0.002     0.000     0.000      0.000     0.070     0.000     0.006     0.001     0.000     0.000     0.000
BIGSUB   1        0   15.61900E-01     0.000     0.000     1.428     0.733   452.384     0.000     0.012     0.000     0.095    -3.710     0.023     0.173     0.083     0.001     0.000     0.000      0.000     0.070     0.000     0.002     0.000     0.000     0.000     0.000
BIGSUB   1        0   16.61900E-01     5.800     0.000     0.213     0.107   452.324     0.000     0.003     0.000     0.086     0.648     1.428     1.468     0.082     0.000     0.000     0.000      0.000     0.070     0.000     0.000     0.000     0.000     0.000     0.000
BIGSUB   1        0   17.61900E-01     0.000     0.000     0.222     0.111   452.153     0.000     0.001     0.000     0.083    -3.507     1.113     1.223     0.082     0.000     0.000     0.000      0.000     0.070     0.000     0.000     0.000     0.000     0.000     0.000
BIGSUB   1        0   18.61900E-01     0.000     0.000     0.332     0.166   451.926     0.000     0.000     0.000     0.082    -8.949     0.241     0.449     0.082     0.000     0.000     0.000      0.000     0.070     0.000     0.000     0.000     0.000     0.000     0.000
BIGSUB   1        0   19.61900E-01     0.000     0.000     0.635     0.318   451.832     0.000     0.000     0.000     0.082   -12.378    -0.443    -0.177     0.081     0.000     0.000     0.000      0.000     0.070     0.000     0.000     0.000     0.000     0.000     0.000
BIGSUB   1        0   20.61900E-01     0.000     0.000     0.026     0.013   451.758     0.000     0.000     0.000     0.081   -11.536    -0.403    -0.154     0.081     0.000     0.000     0.000      0.000     0.070     0.000     0.000     0.000     0.000     0.000     0.000
BIGSUB   1        0   21.61900E-01     0.800     0.000     0.000     0.000   451.698     0.000     0.000     0.000     0.081   -10.613    -0.297    -0.065     0.080     0.000     0.000     0.000      0.000     0.070     0.000     0.000     0.000     0.000     0.000     0.000
BIGSUB   1        0   22.61900E-01     0.000     0.000     0.000     0.000   451.638     0.000     0.000     0.000     0.080    -9.098     0.059     0.254     0.080     0.000     0.000     0.000      0.000     0.070     0.000     0.000     0.000     0.000     0.000     0.000
BIGSUB   1        0   23.61900E-01     0.000     0.000     0.637     0.318   451.259     0.000     0.000     0.000     0.080    -6.948     0.487     0.648     0.080     0.000     0.000     0.000      0.000     0.070     0.000     0.000     0.000     0.000     0.000     0.000
BIGSUB   1        0   24.61900E-01     0.000     0.000     0.686     0.343   450.856     0.000     0.000     0.000     0.080    -7.011     0.599     0.764     0.079     0.000     0.000     0.000      0.000     0.070     0.000     0.000     0.000     0.000     0.000     0.000
BIGSUB   1        0   25.61900E-01     0.000     0.000     0.428     0.214   450.582     0.000     0.000     0.000     0.079    -5.218     0.969     1.108     0.079     0.000     0.000     0.000      0.000     0.070     0.000     0.000     0.000     0.000     0.000     0.000
BIGSUB   1        0   26.61900E-01     0.000     0.000     0.033     0.016   450.522     0.000     0.000     0.000     0.079    -0.956     1.800     1.871     0.078     0.000     0.000     0.000      0.000     0.070     0.000     0.000     0.000     0.000     0.000     0.000
BIGSUB   1        0   27.61900E-01     0.000     0.000     0.126     0.063   451.132     0.000     0.000     0.000     0.079    -2.982     1.714     1.825     0.078     0.000     0.000     0.000      0.000     0.070     0.000     0.000     0.000     0.000     0.000     0.000
BIGSUB   1        0   28.61900E-01     0.000     0.000     0.455     0.227   450.844     0.000     0.000     0.000     0.078    -4.292     1.781     1.922     0.078     0.000     0.000     0.000      0.000     0.070     0.000     0.000     0.000     0.000     0.000     0.000
BIGSUB   1        0   29.61900E-01     0.300     0.000     0.000     0.000   450.784     0.000     0.000     0.000     0.078    -0.913     2.429     2.517     0.077     0.000     0.000     0.000      0.000     0.070     0.000     0.000     0.000     0.000     0.000     0.000
BIGSUB   1        0   30.61900E-01     0.000     0.000     0.495     0.247   450.692     0.000     0.000     0.000     0.077    -2.285     2.485     2.601     0.077     0.000     0.000     0.000      0.000     0.070     0.000     0.000     0.000     0.000     0.000     0.000
BIGSUB   1        0   31.61900E-01     0.000    11.222     1.443     0.721   452.987     0.188     1.960     0.000     4.460     1.451     3.311     3.359     0.080     0.072     0.000     0.000      0.005     0.070     0.099     0.223     0.027     0.000     0.000     2.420
BIGSUB   1        0   32.61900E-01     0.300     0.000     0.189     0.092   453.133     0.000     0.488     0.000     0.569     3.387     3.468     3.543     0.080     0.018     0.000     0.000      0.000     0.070     0.000     0.056     0.007     0.000     0.000     0.000
BIGSUB   1        0   33.61900E-01     0.000     0.000     1.320     0.659   452.414     0.000     0.122     0.000     0.201     3.199     3.322     3.434     0.079     0.004     0.000     0.000      0.000     0.070     0.000     0.014     0.002     0.000     0.000     0.000
BIGSUB   1        0   34.61900E-01    21.100     0.000     0.301     0.147   453.219     0.084     9.415     0.000    12.696     4.485     4.483     4.486     0.083     0.405     0.000     0.000      0.006     0.071     0.593     1.262     0.155     0.001     0.000     3.198
BIGSUB   1        0   35.61900E-01     0.000     0.000     1.852     0.926   452.232     0.000     2.346     0.000     2.429     4.689     4.725     4.759     0.082     0.101     0.000     0.000      0.000     0.071     0.000     0.315     0.039     0.000     0.000     0.000
BIGSUB   1        0   36.61900E-01     0.000     0.000     1.083     0.530   451.641     0.000     0.585     0.000     0.667     2.378     2.684     2.951     0.082     0.025     0.000     0.000      0.000     0.071     0.000     0.078     0.010     0.000     0.000     0.000
BIGSUB   1        0   37.61900E-01     0.000     0.000     0.539     0.264   451.317     0.000     0.146     0.000     0.228     1.201     1.554     1.864     0.081     0.006     0.000     0.000      0.000     0.071     0.000     0.020     0.002     0.000     0.000     0.000
BIGSUB   1        0   38.61900E-01     0.000     0.000     1.248     0.626   450.631     0.000     0.036     0.000     0.118     0.651     0.995     1.300     0.081     0.002     0.000     0.000      0.000     0.071     0.000     0.005     0.001     0.000     0.000     0.000
BIGSUB   1        0   39.61900E-01     1.000     0.000     0.607     0.297   451.273     0.000     0.009     0.000     0.090     2.730     2.812     2.891     0.081     0.000     0.000     0.000      0.000     0.071     0.000     0.001     0.000     0.000     0.000     0.000
BIGSUB   1        0   40.61900E-01     0.300     0.000     0.225     0.110   451.103     0.000     0.002     0.000     0.083     1.106     1.424     1.700     0.080     0.000     0.000     0.000      0.000     0.071     0.000     0.000     0.000     0.000     0.000     0.000
BIGSUB   1        0   41.61900E-01     0.500     0.000     0.070     0.035   451.007     0.000     0.001     0.000     0.081    -4.582    -3.718    -2.973     0.080     0.000     0.000     0.000      0.000     0.071     0.000     0.000     0.000     0.000     0.000     0.000
BIGSUB   1        0   42.61900E-01     0.300     0.000     0.000     0.000   450.947     0.000     0.000     0.000     0.080   -10.993    -9.624    -8.450     0.079     0.000     0.000     0.000      0.000     0.071     0.000     0.000     0.000     0.000     0.000     0.000
BIGSUB   1        0   43.61900E-01     0.000     0.000     0.789     0.394   450.492     0.000     0.000     0.000     0.079    -2.836    -2.416    -2.053     0.079     0.000     0.000     0.000      0.000     0.071     0.000     0.000     0.000     0.000     0.000     0.000
BIGSUB   1        0   44.61900E-01     0.000     0.000     0.528     0.264   450.168     0.000     0.000     0.000     0.079    -2.831    -2.414    -2.055     0.079     0.000     0.000     0.000      0.000     0.071     0.000     0.000     0.000     0.000     0.000     0.000
BIGSUB   1        0   45.61900E-01     0.000     0.000     0.326     0.163   449.810     0.000     0.000     0.000     0.079    -2.804    -2.394    -2.041     0.078     0.000     0.000     0.000      0.000     0.071     0.000     0.000     0.000     0.000     0.000     0.000
BIGSUB   1        0   46.61900E-01     0.800     0.000     0.000     0.000   449.150     0.000     0.000     0.000     0.078    -2.049    -1.721    -1.439     0.078     0.000     0.000     0.000      0.000     0.071     0.000     0.000     0.000     0.000     0.000     0.000
BIGSUB   1        0   47.61900E-01     0.000     0.000     0.518     0.259   448.363     0.000     0.000     0.000     0.078    -1.494    -0.218    -0.086     0.077     0.000     0.000     0.000      0.000     0.071     0.000     0.000     0.000     0.000     0.000     0.000
BIGSUB   1        0   48.61900E-01     0.300     0.000     0.000     0.000   448.185     0.000     0.000     0.000     0.078    -1.925    -0.420    -0.264     0.077     0.000     0.000     0.000      0.000     0.071     0.000     0.000     0.000     0.000     0.000     0.000
BIGSUB   1        0   49.61900E-01     0.000     0.000     0.416     0.208   447.638     0.000     0.000     0.000     0.077    -1.823    -0.273    -0.131     0.077     0.000     0.000     0.000      0.000     0.071     0.000     0.000     0.000     0.000     0.000     0.000
BIGSUB   1        0   50.61900E-01     0.000     0.000     0.258     0.129   447.290     0.000     0.000     0.000     0.077    -8.301    -3.308    -2.863     0.076     0.000     0.000     0.000      0.000     0.071     0.000     0.000     0.000     0.000     0.000     0.000
BIGSUB   1        0   51.61900E-01     0.000     2.200     2.166     1.081   445.782     0.000     0.000     0.000     0.076     2.257     1.605     1.553     0.076     0.000     0.000     0.000      0.000     0.071     0.000     0.000     0.000     0.000     0.000     0.000
BIGSUB   1        0   52.61900E-01     0.000     0.000     2.063     1.034   447.103     0.000     0.000     0.000     2.051     3.383     3.193     3.014     0.078     0.000     0.000     0.000      0.000     0.071     0.000     0.000     0.000     0.000     0.000     1.973
BIGSUB   1        0   53.61900E-01     0.000     0.000     1.035     0.507   448.343     0.000     0.000     0.000     0.078     3.558     3.439     3.332     0.077     0.000     0.000     0.000      0.000     0.071     0.000     0.000     0.000     0.000     0.000     0.000
BIGSUB   1        0   54.61900E-01     0.000     0.000     1.350     0.681   448.414     0.000     0.000     0.000     0.077     3.076     3.037     3.012     0.077     0.000     0.000     0.000      0.000     0.071     0.000     0.000     0.000     0.000     0.000     0.000
BIGSUB   1        0   55.61900E-01    24.900     0.000     0.109     0.054   453.313     0.238     8.946     0.000    12.486     3.488     3.425     3.381     0.081     0.371     0.000     0.000      0.001     0.071     0.554     1.156     0.141     0.001     0.000     3.458
BIGSUB   1        0   56.61900E-01    13.200     2.699     1.003     0.513   453.355     0.006     2.263     0.000     3.426     2.566     2.617     2.672     0.082     0.097     0.000     0.000      0.000     0.071     0.000     0.304     0.037     0.000     0.000     1.080
BIGSUB   1        0   57.61900E-01     2.300     0.000     0.000     0.000   453.360     0.000     0.564     0.000     0.781    -2.318     2.030     2.140     0.082     0.024     0.000     0.000      0.000     0.071     0.000     0.076     0.009     0.000     0.000     0.135
BIGSUB   1        0   58.61900E-01     0.000     0.000     0.582     0.291   453.009     0.000     0.141     0.000     0.222    -2.709     2.242     2.353     0.081     0.006     0.000     0.000      0.000     0.071     0.000     0.019     0.002     0.000     0.000     0.000
BIGSUB   1        0   59.61900E-01     0.000     1.496     1.314     0.677   453.347     0.031     0.035     0.000     0.562    -1.570     2.473     2.568     0.081     0.002     0.000     0.000      0.000     0.071     0.000     0.005     0.001     0.000     0.000     0.445
BIGSUB   1        0   60.61900E-01     3.000    10.146     0.336     0.165   453.202     0.000     4.926     0.000     8.200     6.575     3.862     3.829     0.085     0.199     0.000     0.000      0.000     0.071     0.303     0.622     0.076     0.000     0.000     3.188
BIGSUB   1        0   61.61900E-01     0.000     0.000     4.890     2.440   450.702     0.000     1.228     0.000     1.313     4.166     4.187     4.222     0.084     0.050     0.000     0.000      0.000     0.071     0.000     0.155     0.019     0.000     0.000     0.000
BIGSUB   1        0   62.61900E-01    13.200    13.200     1.366     0.681   452.686     0.169     3.824     0.000     6.728     3.593     3.715     3.835     0.087     0.144     0.000     0.000      0.000     0.071     0.198     0.449     0.055     0.000     0.000     2.816
BIGSUB   1        0   63.61900E-01     0.000     0.000     2.020     1.019   451.606     0.000     0.953     0.000     1.040     2.570     2.801     3.007     0.087     0.036     0.000     0.000      0.000     0.071     0.000     0.112     0.014     0.000     0.000     0.000
BIGSUB   1        0   64.61900E-01     4.100     0.000     0.000     0.000   451.546     0.000     0.238     0.000     0.324     1.831     2.107     2.352     0.086     0.009     0.000     0.000      0.000     0.071     0.000     0.028     0.003     0.000     0.000     0.000
BIGSUB   1        0   65.61900E-01     0.000     0.000     0.497     0.260   451.225     0.000     0.059     0.000     0.145    -1.326     2.285     2.476     0.086     0.002     0.000     0.000      0.000     0.071     0.000     0.007     0.001     0.000     0.000     0.000
BIGSUB   1        0   66.61900E-01     0.000     0.000     1.568     0.810   451.139     0.000     0.015     0.000     0.100    -0.726     2.471     2.641     0.085     0.001     0.000     0.000      0.000     0.071     0.000     0.002     0.000     0.000     0.000     0.000
BIGSUB   1        0   67.61900E-01     0.000     3.316     3.179     1.589   451.778     0.145     0.004     0.000     0.462    -0.147     2.700     2.852     0.085     0.000     0.000     0.000      0.000     0.071     0.000     0.000     0.000     0.000     0.000     0.373
BIGSUB   1        0   68.61900E-01     0.000     0.000     3.992     2.016   449.701     0.000     0.001     0.000     0.086     3.967     3.996     4.028     0.085     0.000     0.000     0.000      0.000     0.071     0.000     0.000     0.000     0.000     0.000     0.000
BIGSUB   1        0   69.61900E-01     0.000     0.000     4.066     2.046   447.595     0.000     0.000     0.000     0.085     6.248     6.096     5.973     0.084     0.000     0.000     0.000      0.000     0.071     0.000     0.000     0.000     0.000     0.000     0.000
BIGSUB   1        0   70.61900E-01    15.500     0.000     1.347     0.681   452.686     0.225     1.752     0.000     4.870    11.597    10.964    10.444     0.088     0.040     0.000     0.000      0.000     0.071     0.051     0.124     0.015     0.000     0.000     3.030
BIGSUB   1        0   71.61900E-01    18.000     0.000     1.977     0.986   452.381     0.065     7.881     0.000    11.076    11.251    10.963    10.701     0.091     0.302     0.000     0.000      0.000     0.071     0.427     0.940     0.115     0.000     0.000     3.103
BIGSUB   1        0   72.61900E-01     0.000     0.000     2.404     1.209   451.111     0.000     1.964     0.000     2.055    10.521    10.386    10.262     0.090     0.075     0.000     0.000      0.000     0.071     0.000     0.234     0.029     0.000     0.000     0.000
BIGSUB   1        0   73.61900E-01     6.300     0.000     1.627     0.813   452.553     0.172     0.490     0.000     2.206    11.107    10.928    10.771     0.092     0.019     0.000     0.000      0.000     0.072     0.000     0.058     0.007     0.000     0.000     1.625
BIGSUB   1        0   74.61900E-01     2.300     0.000     0.397     0.194   453.173     0.081     0.122     0.000     0.788    11.736    11.546    11.376     0.092     0.005     0.000     0.000      0.000     0.072     0.000     0.015     0.002     0.000     0.000     0.573
BIGSUB   1        0   75.61900E-01    27.700     0.000     1.080     0.542   452.825     0.021    14.559     0.000    18.098    12.595    12.373    12.174     0.096     0.348     0.000     0.000      0.000     0.072     0.468     1.085     0.133     0.001     0.000     3.443
BIGSUB   1        0   76.61900E-01     0.000     0.000     3.572     1.796   450.968     0.000     3.629     0.000     3.724    12.737    12.563    12.406     0.095     0.087     0.000     0.000      0.000     0.072     0.000     0.270     0.033     0.000     0.000     0.000
BIGSUB   1        0   77.61900E-01     0.000     0.000     3.734     1.867   449.040     0.000     0.904     0.000     0.999    12.211    12.124    12.046     0.094     0.022     0.000     0.000      0.000     0.072     0.000     0.067     0.008     0.000     0.000     0.000
BIGSUB   1        0   78.61900E-01     0.000     0.000     2.557     1.277   447.703     0.000     0.225     0.000     0.319    11.481    11.473    11.464     0.093     0.005     0.000     0.000      0.000     0.072     0.000     0.017     0.002     0.000     0.000     0.000
BIGSUB   1        0   79.61900E-01     0.000     0.000     2.864     1.433   446.210     0.000     0.056     0.000     0.149    10.560    10.635    10.695     0.093     0.001     0.000     0.000      0.000     0.072     0.000     0.004     0.001     0.000     0.000     0.000
BIGSUB   1        0   80.61900E-01     0.000     0.000     2.282     1.137   445.012     0.000     0.014     0.000     0.107     9.080     9.285     9.452     0.092     0.000     0.000     0.000      0.000     0.072     0.000     0.001     0.000     0.000     0.000     0.000
BIGSUB   1        0   81.61900E-01     0.000     0.000     3.099     1.545   443.407     0.000     0.003     0.000     0.095     7.835     8.111     8.337     0.091     0.000     0.000     0.000      0.000     0.072     0.000     0.000     0.000     0.000     0.000     0.000
BIGSUB   1        0   82.61900E-01     0.000     0.000     2.951     1.480   441.866     0.000     0.001     0.000     0.092     7.054     7.347     7.585     0.091     0.000     0.000     0.000      0.000     0.072     0.000     0.000     0.000     0.000     0.000     0.000
BIGSUB   1        0   83.61900E-01     0.000     0.000     2.849     1.442   440.364     0.000     0.000     0.000     0.091     7.546     7.718     7.860     0.090     0.000     0.000     0.000      0.000     0.072     0.000     0.000     0.000     0.000     0.000     0.000
BIGSUB   1        0   84.61900E-01     0.000     0.000     4.224     2.126   438.178     0.000     0.000     0.000     0.090     8.778     8.796     8.815     0.089     0.000     0.000     0.000      0.000     0.072     0.000     0.000     0.000     0.000     0.000     0.000
BIGSUB   1        0   85.61900E-01    14.200     0.000     0.887     0.454   451.863     0.000     0.000     0.000     0.089     9.098     9.123     9.144     0.089     0.000     0.000     0.000      0.000     0.072     0.000     0.000     0.000     0.000     0.000     0.000
BIGSUB   1        0   86.61900E-01     0.000     0.000     2.292     1.141   450.663     0.000     0.000     0.000     0.089     7.847     8.016     8.163     0.088     0.000     0.000     0.000      0.000     0.072     0.000     0.000     0.000     0.000     0.000     0.000
BIGSUB   1        0   87.61900E-01     0.000     0.000     3.380     1.692   448.911     0.000     0.000     0.000     0.088     7.718     7.857     7.981     0.088     0.000     0.000     0.000      0.000     0.072     0.000     0.000     0.000     0.000     0.000     0.000
BIGSUB   1        0   88.61900E-01    12.400     0.000     2.787     1.390   451.976     0.225     1.345     0.000     3.930     8.995     8.981     8.974     0.091     0.046     0.000     0.000      0.000     0.072     0.072     0.144     0.018     0.000     0.000     2.494
BIGSUB   1        0   89.61900E-01     0.000     0.000     2.192     1.101   450.814     0.000     0.335     0.000     0.426     8.301     8.403     8.492     0.090     0.011     0.000     0.000      0.000     0.072     0.000     0.036     0.004     0.000     0.000     0.000
BIGSUB   1        0   90.61900E-01     0.000     0.000     3.581     1.797   448.956     0.000     0.084     0.000     0.173     7.710     7.859     7.988     0.089     0.003     0.000     0.000      0.000     0.072     0.000     0.009     0.001     0.000     0.000     0.000
BIGSUB   1        0   91.61900E-01     3.800     0.000     0.875     0.428   452.268     0.000     0.021     0.000     0.110     8.896     8.890     8.889     0.089     0.001     0.000     0.000      0.000     0.072     0.000     0.002     0.000     0.000     0.000     0.000
BIGSUB   1        0   92.61900E-01    11.700     0.000     1.159     0.567   452.800     0.098     3.258     0.000     5.953     9.718     9.666     9.622     0.091     0.108     0.000     0.000      0.000     0.072     0.168     0.338     0.041     0.000     0.000     2.603
BIGSUB   1        0   93.61900E-01     1.300     0.000     1.530     0.764   452.603     0.060     0.812     0.000     1.164     8.972     9.040     9.099     0.091     0.027     0.000     0.000      0.000     0.072     0.000     0.084     0.010     0.000     0.000     0.260
BIGSUB   1        0   94.61900E-01     1.500     1.500     0.322     0.157   453.209     0.076     0.202     0.000     0.549     6.316     6.641     6.926     0.091     0.007     0.000     0.000      0.000     0.072     0.000     0.021     0.003     0.000     0.000     0.255
BIGSUB   1        0   95.61900E-01     0.000     0.000     3.294     1.643   451.506     0.000     0.050     0.000     0.141     6.164     6.393     6.601     0.090     0.002     0.000     0.000      0.000     0.072     0.000     0.005     0.001     0.000     0.000     0.000
BIGSUB   1        0   96.61900E-01     0.000     0.000     2.378     1.185   450.260     0.000     0.013     0.000     0.103     5.721     5.965     6.180     0.090     0.000     0.000     0.000      0.000     0.072     0.000     0.001     0.000     0.000     0.000     0.000
BIGSUB   1        0   97.61900E-01     0.000     0.000     2.421     1.205   448.995     0.000     0.003     0.000     0.093     5.146     5.418     5.654     0.089     0.000     0.000     0.000      0.000     0.072     0.000     0.000     0.000     0.000     0.000     0.000
BIGSUB   1        0   98.61900E-01    25.900     0.000     2.022     1.006   452.361     0.246     9.863     0.000    13.403     6.095     6.225     6.341     0.093     0.414     0.000     0.000      0.000     0.072     0.699     1.291     0.158     0.001     0.000     3.446
BIGSUB   1        0   99.61900E-01     2.800     2.800     0.993     0.486   452.881     0.102     2.458     0.000     3.248     5.218     5.450     5.656     0.093     0.103     0.000     0.000      0.000     0.072     0.000     0.322     0.039     0.000     0.000     0.695
BIGSUB   1        0  100.61900E-01     3.800     3.800     0.275     0.135   453.232     0.052     0.613     0.000     2.072     3.318     3.704     4.049     0.094     0.026     0.000     0.000      0.000     0.072     0.000     0.080     0.010     0.000     0.000     1.365
BIGSUB   1        0  101.61900E-01     0.500     0.000     0.118     0.059   453.112     0.000     0.153     0.000     0.247     1.141     1.654     2.116     0.093     0.006     0.000     0.000      0.000     0.072     0.000     0.020     0.002     0.000     0.000     0.000
BIGSUB   1        0  102.61900E-01     3.300     0.500     0.224     0.109   453.257     0.021     0.186     0.000     1.673     3.380     3.547     3.706     0.094     0.005     0.000     0.000      0.000     0.072     0.006     0.017     0.002     0.000     0.000     1.392
BIGSUB   1        0  103.61900E-01    19.800     0.000     0.626     0.306   453.061     0.012     9.188     0.000    12.460     4.041     4.183     4.316     0.098     0.389     0.000     0.000      0.001     0.072     0.677     1.213     0.148     0.001     0.000     3.173
BIGSUB   1        0  104.61900E-01     0.000     0.000     3.879     1.929   451.071     0.000     2.290     0.000     2.388     4.245     4.393     4.529     0.097     0.097     0.000     0.000      0.000     0.072     0.000     0.302     0.037     0.000     0.000     0.000
BIGSUB   1        0  105.61900E-01     0.000     0.000     3.737     1.859   449.151     0.000     0.571     0.000     0.668     4.728     4.844     4.948     0.096     0.024     0.000     0.000      0.000     0.072     0.000     0.075     0.009     0.000     0.000     0.000
BIGSUB   1        0  106.61900E-01     0.000     0.000     5.157     2.581   446.510     0.000     0.142     0.000     0.238     5.507     5.565     5.618     0.095     0.006     0.000     0.000      0.000     0.072     0.000     0.019     0.002     0.000     0.000     0.000
BIGSUB   1        0  107.61900E-01     0.000     0.000     5.975     2.977   443.472     0.000     0.035     0.000     0.131     7.019     6.950     6.897     0.095     0.002     0.000     0.000      0.000     0.072     0.000     0.005     0.001     0.000     0.000     0.000
BIGSUB   1        0  108.61900E-01     0.000     0.000     4.978     2.492   440.920     0.000     0.009     0.000     0.104     8.482     8.321     8.194     0.094     0.000     0.000     0.000      0.000     0.072     0.000     0.001     0.000     0.000     0.000     0.000
BIGSUB   1        0  109.61900E-01     0.000     0.000     5.748     2.874   437.986     0.000     0.002     0.000     0.096     9.796     9.568     9.391     0.093     0.000     0.000     0.000      0.000     0.072     0.000     0.000     0.000     0.000     0.000     0.000
BIGSUB   1        0  110.61900E-01     0.000     0.000     6.867     3.438   434.488     0.000     0.001     0.000     0.094    11.229    10.914    10.676     0.093     0.000     0.000     0.000      0.000     0.072     0.000     0.000     0.000     0.000     0.000     0.000
BIGSUB   1        0  111.61900E-01     0.000     0.000     3.960     1.995   432.432     0.000     0.000     0.000     0.093    11.698    11.432    11.229     0.092     0.000     0.000     0.000      0.000     0.072     0.000     0.000     0.000     0.000     0.000     0.000
BIGSUB   1        0  112.61900E-01     0.000     0.000     4.928     2.467   429.905     0.000     0.000     0.000     0.092    12.577    12.268    12.035     0.091     0.000     0.000     0.000      0.000     0.072     0.000     0.000     0.000     0.000     0.000     0.000
BIGSUB   1        0  113.61900E-01     2.500     0.000     0.915     0.448   431.897     0.000     0.000     0.000     0.091    13.116    12.818    12.593     0.091     0.000     0.000     0.000      0.000     0.072     0.000     0.000     0.000     0.000     0.000     0.000
BIGSUB   1        0  114.61900E-01     1.000     0.000     0.382     0.187   432.650     0.000     0.000     0.000     0.091    12.055    11.970    11.901     0.090     0.000     0.000     0.000      0.000     0.072     0.000     0.000     0.000     0.000     0.000     0.000
BIGSUB   1        0  115.61900E-01     0.000     0.000     3.068     1.546   431.044     0.000     0.000     0.000     0.090    11.859    11.789    11.735     0.089     0.000     0.000     0.000      0.000     0.072     0.000     0.000     0.000     0.000     0.000     0.000
BIGSUB   1        0  116.61900E-01     0.000     0.000     6.559     3.209   427.774     0.000     0.000     0.000     0.090    12.279    12.154    12.060     0.089     0.000     0.000     0.000      0.000     0.072     0.000     0.000     0.000     0.000     0.000     0.000
BIGSUB   1        0  117.61900E-01     0.000     0.000     5.449     2.533   425.181     0.000     0.000     0.000     0.089    13.614    13.332    13.124     0.088     0.000     0.000     0.000      0.000     0.072     0.000     0.000     0.000     0.000     0.000     0.000
BIGSUB   1        0  118.61900E-01     0.000     0.000     3.999     1.784   423.337     0.000     0.000     0.000     0.088    14.015    13.757    13.563     0.087     0.000     0.000     0.000      0.000     0.072     0.000     0.000     0.000     0.000     0.000     0.000
BIGSUB   1        0  119.61900E-01     2.500     0.000     1.095     0.472   425.305     0.000     0.000     0.000     0.088    13.379    13.264    13.175     0.087     0.000     0.000     0.000      0.000     0.072     0.000     0.000     0.000     0.000     0.000     0.000
BIGSUB   1        0  120.61900E-01     0.500     0.000     0.894     0.384   425.362     0.000     0.000     0.000     0.087    12.839    12.798    12.766     0.086     0.000     0.000     0.000      0.000     0.072     0.000     0.000     0.000     0.000     0.000     0.000
BIGSUB   1        0  121.61900E-01     0.000     0.000     4.406     1.917   423.385     0.000     0.000     0.000     0.087    12.593    12.571    12.553     0.086     0.000     0.000     0.000      0.000     0.072     0.000     0.000     0.000     0.000     0.000     0.000
BIGSUB   1        0  122.61900E-01     9.400     0.000     2.315     1.148   431.577     0.000     0.000     0.000     0.086    12.549    12.521    12.499     0.085     0.000     0.000     0.000      0.000     0.072     0.000     0.000     0.000     0.000     0.000     0.000
BIGSUB   1        0  123.61900E-01    22.600     0.000     3.114     1.558   451.809     0.000     0.000     0.000     0.393    13.305    13.162    13.057     0.086     0.000     0.000     0.000      0.000     0.073     0.000     0.000     0.000     0.000     0.000     0.307
BIGSUB   1        0  124.61900E-01     0.300     0.000     1.027     0.503   451.546     0.000     0.000     0.000     0.086    12.556    12.562    12.565     0.085     0.000     0.000     0.000      0.000     0.073     0.000     0.000     0.000     0.000     0.000     0.000
BIGSUB   1        0  125.61900E-01     0.000     0.000     4.373     2.179   449.306     0.000     0.000     0.000     0.086    12.317    12.330    12.342     0.085     0.000     0.000     0.000      0.000     0.073     0.000     0.000     0.000     0.000     0.000     0.000
BIGSUB   1        0  126.61900E-01     1.000     0.000     0.772     0.378   449.868     0.000     0.000     0.000     0.085    11.411    11.511    11.594     0.084     0.000     0.000     0.000      0.000     0.073     0.000     0.000     0.000     0.000     0.000     0.000
BIGSUB   1        0  127.61900E-01     0.500     0.000     0.918     0.449   449.858     0.000     0.000     0.000     0.085    10.691    10.828    10.943     0.084     0.000     0.000     0.000      0.000     0.073     0.000     0.000     0.000     0.000     0.000     0.000
BIGSUB   1        0  128.61900E-01     0.000     0.000     4.001     1.989   447.808     0.000     0.000     0.000     0.084    11.177    11.215    11.250     0.083     0.000     0.000     0.000      0.000     0.073     0.000     0.000     0.000     0.000     0.000     0.000
BIGSUB   1        0  129.61900E-01     0.000     0.000     6.399     3.198   444.550     0.000     0.000     0.000     0.084    11.650    11.640    11.634     0.083     0.000     0.000     0.000      0.000     0.073     0.000     0.000     0.000     0.000     0.000     0.000
BIGSUB   1        0  130.61900E-01     0.000     0.000     3.914     1.950   442.539     0.000     0.000     0.000     0.083    11.882    11.862    11.847     0.082     0.000     0.000     0.000      0.000     0.073     0.000     0.000     0.000     0.000     0.000     0.000
BIGSUB   1        0  131.61900E-01     5.800     0.000     2.675     1.329   446.950     0.000     0.000     0.000     0.083    11.777    11.784    11.788     0.082     0.000     0.000     0.000      0.000     0.073     0.000     0.000     0.000     0.000     0.000     0.000
BIGSUB   1        0  132.61900E-01    18.500     0.000     2.769     1.355   452.011     0.388     3.322     0.000     6.478    12.491    12.411    12.350     0.085     0.110     0.000     0.000      0.000     0.073     0.183     0.342     0.042     0.000     0.000     3.070
BIGSUB   1        0  133.61900E-01     0.000     0.000     6.287     3.129   448.822     0.000     0.828     0.000     0.914    13.285    13.163    13.056     0.085     0.027     0.000     0.000      0.000     0.073     0.000     0.085     0.010     0.000     0.000     0.000
BIGSUB   1        0  134.61900E-01    17.800     0.000     1.720     0.842   452.525     0.300     4.310     0.000     7.566    14.067    13.895    13.750     0.088     0.161     0.000     0.000      0.000     0.073     0.271     0.501     0.061     0.000     0.000     3.167
BIGSUB   1        0  135.61900E-01     5.800     0.000     2.175     1.082   452.285     0.090     1.360     0.000     3.339    13.536    13.478    13.423     0.090     0.055     0.000     0.000      0.000     0.073     0.000     0.171     0.021     0.000     0.000     1.888
BIGSUB   1        0  136.61900E-01     0.000     0.000     3.235     1.634   450.591     0.000     0.339     0.000     0.429    12.770    12.789    12.802     0.090     0.014     0.000     0.000      0.000     0.073     0.000     0.043     0.005     0.000     0.000     0.000
BIGSUB   1        0  137.61900E-01     0.000     0.000     2.993     1.541   448.990     0.000     0.084     0.000     0.174    12.034    12.104    12.163     0.089     0.003     0.000     0.000      0.000     0.073     0.000     0.011     0.001     0.000     0.000     0.000
BIGSUB   1        0  138.61900E-01     0.000     0.000     4.777     2.442   446.487     0.000     0.021     0.000     0.110    12.022    12.058    12.088     0.088     0.001     0.000     0.000      0.000     0.073     0.000     0.003     0.000     0.000     0.000     0.000
BIGSUB   1        0  139.61900E-01     4.300     0.000     0.836     0.420   450.306     0.000     0.005     0.000     0.094    11.845    11.889    11.926     0.088     0.000     0.000     0.000      0.000     0.073     0.000     0.001     0.000     0.000     0.000     0.000
BIGSUB   1        0  140.61900E-01     0.000     0.000     3.656     1.809   448.437     0.000     0.001     0.000     0.089    11.865    11.892    11.914     0.087     0.000     0.000     0.000      0.000     0.073     0.000     0.000     0.000     0.000     0.000     0.000
BIGSUB   1        0  141.61900E-01     0.000     0.000     6.801     3.342   445.034     0.000     0.000     0.000     0.088    12.390    12.352    12.323     0.087     0.000     0.000     0.000      0.000     0.073     0.000     0.000     0.000     0.000     0.000     0.000
BIGSUB   1        0  142.61900E-01     3.600     0.000     1.939     0.958   447.616     0.000     0.000     0.000     0.087    13.133    13.023    12.940     0.086     0.000     0.000     0.000      0.000     0.073     0.000     0.000     0.000     0.000     0.000     0.000
BIGSUB   1        0  143.61900E-01     0.500     0.000     2.179     1.074   446.982     0.000     0.000     0.000     0.086    12.929    12.884    12.848     0.085     0.000     0.000     0.000      0.000     0.073     0.000     0.000     0.000     0.000     0.000     0.000
BIGSUB   1        0  144.61900E-01     0.000     0.000     4.113     2.052   444.869     0.000     0.000     0.000     0.086    13.274    13.190    13.126     0.085     0.000     0.000     0.000      0.000     0.073     0.000     0.000     0.000     0.000     0.000     0.000
BIGSUB   1        0  145.61900E-01     0.000     0.000     7.426     3.671   441.138     0.000     0.000     0.000     0.085    13.861    13.723    13.619     0.084     0.000     0.000     0.000      0.000     0.073     0.000     0.000     0.000     0.000     0.000     0.000
BIGSUB   1        0  146.61900E-01     0.000     0.000     4.826     2.416   438.662     0.000     0.000     0.000     0.085    14.852    14.620    14.448     0.084     0.000     0.000     0.000      0.000     0.073     0.000     0.000     0.000     0.000     0.000     0.000
BIGSUB   1        0  147.61900E-01     0.000     0.000     7.671     3.853   434.750     0.000     0.000     0.000     0.084    15.941    15.628    15.394     0.083     0.000     0.000     0.000      0.000     0.073     0.000     0.000     0.000     0.000     0.000     0.000
BIGSUB   1        0  148.61900E-01     0.000     0.000     9.883     4.913   429.776     0.000     0.000     0.000     0.084    16.696    16.354    16.098     0.083     0.000     0.000     0.000      0.000     0.073     0.000     0.000     0.000     0.000     0.000     0.000
BIGSUB   1        0  149.61900E-01     0.000     0.000    10.128     5.001   424.716     0.000     0.000     0.000     0.083    17.611    17.205    16.903     0.082     0.000     0.000     0.000      0.000     0.073     0.000     0.000     0.000     0.000     0.000     0.000
BIGSUB   1        0  150.61900E-01     0.000     0.000     5.922     2.703   421.952     0.000     0.000     0.000     0.083    18.407    17.957    17.624     0.082     0.000     0.000     0.000      0.000     0.073     0.000     0.000     0.000     0.000     0.000     0.000
BIGSUB   1        0  151.61900E-01    22.100     0.000     2.287     1.169   442.824     0.000     0.000     0.000     0.082    19.101    18.623    18.270     0.081     0.000     0.000     0.000      0.000     0.073     0.000     0.000     0.000     0.000     0.000     0.000
BIGSUB   1        0  152.61900E-01     0.000     0.000     6.178     3.096   439.668     0.000     0.000     0.000     0.082    19.575    19.110    18.779     0.081     0.000     0.000     0.000      0.000     0.073     0.000     0.000     0.000     0.000     0.000     0.000
BIGSUB   1        0  153.61900E-01     0.000     0.000     8.197     4.103   435.505     0.000     0.000     0.000     0.082    20.206    19.710    19.358     0.081     0.000     0.000     0.000      0.000     0.073     0.000     0.000     0.000     0.000     0.000     0.000
BIGSUB   1        0  154.61900E-01     0.000     0.000     8.410     4.205   431.240     0.000     0.000     0.000     0.081    20.718    20.206    19.842     0.080     0.000     0.000     0.000      0.000     0.073     0.000     0.000     0.000     0.000     0.000     0.000
BIGSUB   1        0  155.61900E-01     0.000     0.000     7.863     3.950   427.231     0.000     0.000     0.000     0.081    21.115    20.596    20.227     0.080     0.000     0.000     0.000      0.000     0.073     0.000     0.000     0.000     0.000     0.000     0.000
BIGSUB   1        0  156.61900E-01     0.000     0.000     8.356     4.031   423.140     0.000     0.000     0.000     0.080    21.466    20.938    20.564     0.079     0.000     0.000     0.000      0.000     0.073     0.000     0.000     0.000     0.000     0.000     0.000
BIGSUB   1        0  157.61900E-01     7.400     0.000     2.292     1.142   429.339     0.000     0.000     0.000     0.080    21.242    20.788    20.467     0.079     0.000     0.000     0.000      0.000     0.073     0.000     0.000     0.000     0.000     0.000     0.000
BIGSUB   1        0  158.61900E-01     5.600     0.000     2.120     1.114   433.765     0.000     0.000     0.000     0.079    21.122    20.700    20.401     0.078     0.000     0.000     0.000      0.000     0.073     0.000     0.000     0.000     0.000     0.000     0.000
BIGSUB   1        0  159.61900E-01     0.000     0.000     6.644     3.397   430.309     0.000     0.000     0.000     0.079    21.200    20.772    20.470     0.078     0.000     0.000     0.000      0.000     0.073     0.000     0.000     0.000     0.000     0.000     0.000
BIGSUB   1        0  160.61900E-01     0.000     0.000     4.604     2.404   427.845     0.000     0.000     0.000     0.079    20.647    20.320    20.088     0.078     0.000     0.000     0.000      0.000     0.073     0.000     0.000     0.000     0.000     0.000     0.000
BIGSUB   1        0  161.61900E-01     0.000     0.000     5.564     2.828   424.957     0.000     0.000     0.000     0.078    20.176    19.904    19.712     0.077     0.000     0.000     0.000      0.000     0.073     0.000     0.000     0.000     0.000     0.000     0.000
BIGSUB   1        0  162.61900E-01     0.000     0.000     6.053     2.878   422.020     0.000     0.000     0.000     0.078    20.325    19.994    19.764     0.077     0.000     0.000     0.000      0.000     0.073     0.000     0.000     0.000     0.000     0.000     0.000
BIGSUB   1        0  163.61900E-01     0.000     0.000     6.887     3.001   418.960     0.000     0.000     0.000     0.077    20.762    20.355    20.071     0.077     0.000     0.000     0.000      0.000     0.073     0.000     0.000     0.000     0.000     0.000     0.000
BIGSUB   1        0  164.61900E-01     0.000     0.000     6.961     3.087   415.814     0.000     0.000     0.000     0.077    21.641    21.109    20.738     0.076     0.000     0.000     0.000      0.000     0.073     0.000     0.000     0.000     0.000     0.000     0.000
BIGSUB   1        0  165.61900E-01     0.000     0.000     7.026     2.900   412.855     0.000     0.000     0.000     0.077    21.559    21.101    20.776     0.076     0.000     0.000     0.000      0.000     0.073     0.000     0.000     0.000     0.000     0.000     0.000
BIGSUB   1        0  166.61900E-01     0.000     0.000     5.183     2.127   410.669     0.000     0.000     0.000     0.076    21.739    21.270    20.937     0.075     0.000     0.000     0.000      0.000     0.073     0.000     0.000     0.000     0.000     0.000     0.000
BIGSUB   1        0  167.61900E-01     0.300     0.000     1.072     0.435   410.475     0.000     0.000     0.000     0.076    21.721    21.278    20.961     0.075     0.000     0.000     0.000      0.000     0.073     0.000     0.000     0.000     0.000     0.000     0.000
BIGSUB   1        0  168.61900E-01     8.100     0.000     1.651     0.720   417.797     0.000     0.000     0.000     0.076    22.863    22.240    21.797     0.075     0.000     0.000     0.000      0.000     0.073     0.000     0.000     0.000     0.000     0.000     0.000
BIGSUB   1        0  169.61900E-01     0.500     0.000     1.113     0.473   417.764     0.000     0.000     0.000     0.075    22.327    21.864    21.529     0.074     0.000     0.000     0.000      0.000     0.073     0.000     0.000     0.000     0.000     0.000     0.000
BIGSUB   1        0  170.61900E-01     0.000     0.000     7.952     3.525   414.181     0.000     0.000     0.000     0.075    22.553    22.052    21.693     0.074     0.000     0.000     0.000      0.000     0.073     0.000     0.000     0.000     0.000     0.000     0.000
BIGSUB   1        0  171.61900E-01     0.000     0.000     8.938     3.788   410.334     0.000     0.000     0.000     0.075    22.787    22.269    21.893     0.074     0.000     0.000     0.000      0.000     0.073     0.000     0.000     0.000     0.000     0.000     0.000
BIGSUB   1        0  172.61900E-01     0.000     0.000    10.700     4.616   405.659     0.000     0.000     0.000     0.074    23.173    22.616    22.208     0.073     0.000     0.000     0.000      0.000     0.073     0.000     0.000     0.000     0.000     0.000     0.000
BIGSUB   1        0  173.61900E-01     0.000     0.000     6.509     3.133   402.467     0.000     0.000     0.000     0.074    23.646    23.046    22.599     0.073     0.000     0.000     0.000      0.000     0.073     0.000     0.000     0.000     0.000     0.000     0.000
BIGSUB   1        0  174.61900E-01     0.000     0.000     8.668     3.455   398.953     0.000     0.000     0.000     0.074    23.503    22.969    22.562     0.073     0.000     0.000     0.000      0.000     0.073     0.000     0.000     0.000     0.000     0.000     0.000
BIGSUB   1        0  175.61900E-01    15.700     0.000     2.394     1.086   413.509     0.000     0.000     0.000     0.073    23.205    22.734    22.370     0.073     0.000     0.000     0.000      0.000     0.073     0.000     0.000     0.000     0.000     0.000     0.000
BIGSUB   1        0  176.61900E-01     0.000     0.000     8.542     3.994   409.456     0.000     0.000     0.000     0.073    23.342    22.836    22.447     0.072     0.000     0.000     0.000      0.000     0.073     0.000     0.000     0.000     0.000     0.000     0.000
BIGSUB   1        0  177.61900E-01     0.000     0.000     7.133     3.190   406.208     0.000     0.000     0.000     0.073    22.971    22.539    22.202     0.072     0.000     0.000     0.000      0.000     0.073     0.000     0.000     0.000     0.000     0.000     0.000
BIGSUB   1        0  178.61900E-01     0.000     0.000     6.831     3.472   402.677     0.000     0.000     0.000     0.073    23.423    22.904    22.500     0.072     0.000     0.000     0.000      0.000     0.073     0.000     0.000     0.000     0.000     0.000     0.000
BIGSUB   1        0  179.61900E-01     0.500     0.000     1.948     0.944   402.175     0.000     0.000     0.000     0.072    24.241    23.609    23.116     0.071     0.000     0.000     0.000      0.000     0.073     0.000     0.000     0.000     0.000     0.000     0.000
BIGSUB   1        0  180.61900E-01     0.000     0.000     6.844     3.410   398.707     0.000     0.000     0.000     0.072    24.328    23.732    23.264     0.071     0.000     0.000     0.000      0.000     0.073     0.000     0.000     0.000     0.000     0.000     0.000
BIGSUB   1        0  181.61900E-01     0.000     0.000     5.998     2.844   395.805     0.000     0.000     0.000     0.072    23.649    23.191    22.827     0.071     0.000     0.000     0.000      0.000     0.073     0.000     0.000     0.000     0.000     0.000     0.000
BIGSUB   1        0  182.61900E-01     0.000     0.000     4.798     2.510   393.238     0.000     0.000     0.000     0.071    23.017    22.643    22.344     0.071     0.000     0.000     0.000      0.000     0.073     0.000     0.000     0.000     0.000     0.000     0.000
BIGSUB   1        0  183.61900E-01     1.000     0.000     2.351     1.117   393.063     0.000     0.000     0.000     0.071    22.801    22.428    22.131     0.070     0.000     0.000     0.000      0.000     0.073     0.000     0.000     0.000     0.000     0.000     0.000
BIGSUB   1        0  184.61900E-01     0.300     0.000     3.459     1.640   391.665     0.000     0.000     0.000     0.071    21.817    21.581    21.389     0.070     0.000     0.000     0.000      0.000     0.073     0.000     0.000     0.000     0.000     0.000     0.000
BIGSUB   1        0  185.61900E-01     0.000     0.000     5.436     2.805   388.803     0.000     0.000     0.000     0.071    21.349    21.129    20.951     0.070     0.000     0.000     0.000      0.000     0.073     0.000     0.000     0.000     0.000     0.000     0.000
BIGSUB   1        0  186.61900E-01     0.300     0.000     3.207     1.419   387.627     0.000     0.000     0.000     0.070    21.059    20.838    20.659     0.069     0.000     0.000     0.000      0.000     0.073     0.000     0.000     0.000     0.000     0.000     0.000
BIGSUB   1        0  187.61900E-01     0.000     0.000     5.322     2.442   385.128     0.000     0.000     0.000     0.070    20.833    20.609    20.428     0.069     0.000     0.000     0.000      0.000     0.073     0.000     0.000     0.000     0.000     0.000     0.000
BIGSUB   1        0  188.61900E-01     0.000     0.000     9.444     4.486   380.585     0.000     0.000     0.000     0.070    21.328    20.993    20.723     0.069     0.000     0.000     0.000      0.000     0.073     0.000     0.000     0.000     0.000     0.000     0.000
BIGSUB   1        0  189.61900E-01     2.500     0.000     3.654     1.833   381.195     0.000     0.000     0.000     0.070    21.927    21.502    21.159     0.069     0.000     0.000     0.000      0.000     0.073     0.000     0.000     0.000     0.000     0.000     0.000
BIGSUB   1        0  190.61900E-01     9.400     0.000     3.351     1.609   388.930     0.000     0.000     0.000     0.069    23.040    22.462    21.996     0.068     0.000     0.000     0.000      0.000     0.073     0.000     0.000     0.000     0.000     0.000     0.000
BIGSUB   1        0  191.61900E-01     1.300     0.000     4.622     2.237   387.936     0.000     0.000     0.000     0.069    23.069    22.544    22.115     0.068     0.000     0.000     0.000      0.000     0.073     0.000     0.000     0.000     0.000     0.000     0.000
BIGSUB   1        0  192.61900E-01     0.000     0.000     5.920     2.781   385.099     0.000     0.000     0.000     0.069    22.758    22.306    21.935     0.068     0.000     0.000     0.000      0.000     0.073     0.000     0.000     0.000     0.000     0.000     0.000
BIGSUB   1        0  193.61900E-01     0.000     0.000     6.711     3.069   381.974     0.000     0.000     0.000     0.069    22.772    22.317    21.943     0.068     0.000     0.000     0.000      0.000     0.073     0.000     0.000     0.000     0.000     0.000     0.000
BIGSUB   1        0  194.61900E-01     0.000     0.000     7.250     3.250   378.668     0.000     0.000     0.000     0.068    23.350    22.807    22.362     0.067     0.000     0.000     0.000      0.000     0.073     0.000     0.000     0.000     0.000     0.000     0.000
BIGSUB   1        0  195.61900E-01     0.000     0.000     8.140     3.599   375.013     0.000     0.000     0.000     0.068    23.942    23.338    22.840     0.067     0.000     0.000     0.000      0.000     0.073     0.000     0.000     0.000     0.000     0.000     0.000
BIGSUB   1        0  196.61900E-01    13.500     0.000     2.985     1.391   387.067     0.000     0.000     0.000     0.068    24.386    23.753    23.230     0.067     0.000     0.000     0.000      0.000     0.073     0.000     0.000     0.000     0.000     0.000     0.000
BIGSUB   1        0  197.61900E-01    15.200     0.000     2.273     1.361   400.852     0.000     0.000     0.000     0.067    24.178    23.614    23.144     0.067     0.000     0.000     0.000      0.000     0.073     0.000     0.000     0.000     0.000     0.000     0.000
BIGSUB   1        0  198.61900E-01     0.000     0.000     9.581     5.692   395.105     0.000     0.000     0.000     0.067    23.780    23.277    22.856     0.066     0.000     0.000     0.000      0.000     0.073     0.000     0.000     0.000     0.000     0.000     0.000
BIGSUB   1        0  199.61900E-01     0.000     0.000     6.196     3.602   391.448     0.000     0.000     0.000     0.067    23.001    22.619    22.297     0.066     0.000     0.000     0.000      0.000     0.073     0.000     0.000     0.000     0.000     0.000     0.000
BIGSUB   1        0  200.61900E-01    18.000     0.000     2.334     1.511   407.883     0.000     0.000     0.000     0.067    23.321    22.853    22.462     0.066     0.000     0.000     0.000      0.000     0.073     0.000     0.000     0.000     0.000     0.000     0.000
BIGSUB   1        0  201.61900E-01     0.300     0.000     2.513     1.604   406.524     0.000     0.000     0.000     0.066    23.404    22.917    22.507     0.066     0.000     0.000     0.000      0.000     0.073     0.000     0.000     0.000     0.000     0.000     0.000
BIGSUB   1        0  202.61900E-01     0.000     0.000     7.292     4.542   401.928     0.000     0.000     0.000     0.066    23.616    23.099    22.665     0.065     0.000     0.000     0.000      0.000     0.073     0.000     0.000     0.000     0.000     0.000     0.000
BIGSUB   1        0  203.61900E-01     0.000     0.000     5.767     3.478   398.396     0.000     0.000     0.000     0.066    24.039    23.467    22.988     0.065     0.000     0.000     0.000      0.000     0.073     0.000     0.000     0.000     0.000     0.000     0.000
BIGSUB   1        0  204.61900E-01     0.000     0.000     7.332     4.327   394.015     0.000     0.000     0.000     0.066    24.306    23.719    23.226     0.065     0.000     0.000     0.000      0.000     0.073     0.000     0.000     0.000     0.000     0.000     0.000
BIGSUB   1        0  205.61900E-01     0.000     0.000     5.517     3.220   390.741     0.000     0.000     0.000     0.066    24.447    23.864    23.374     0.065     0.000     0.000     0.000      0.000     0.073     0.000     0.000     0.000     0.000     0.000     0.000
BIGSUB   1        0  206.61900E-01     0.000     0.000     5.457     3.127   387.561     0.000     0.000     0.000     0.065    25.034    24.376    23.826     0.065     0.000     0.000     0.000      0.000     0.073     0.000     0.000     0.000     0.000     0.000     0.000
BIGSUB   1        0  207.61900E-01    21.600     0.000     2.713     1.738   407.370     0.000     0.000     0.000     0.065    26.025    25.248    24.599     0.064     0.000     0.000     0.000      0.000     0.073     0.000     0.000     0.000     0.000     0.000     0.000
BIGSUB   1        0  208.61900E-01     0.000     0.000     6.302     3.963   403.353     0.000     0.000     0.000     0.065    26.013    25.292    24.686     0.064     0.000     0.000     0.000      0.000     0.073     0.000     0.000     0.000     0.000     0.000     0.000
BIGSUB   1        0  209.61900E-01     0.000     0.000     8.567     5.304   397.996     0.000     0.000     0.000     0.065    25.565    24.953    24.437     0.064     0.000     0.000     0.000      0.000     0.073     0.000     0.000     0.000     0.000     0.000     0.000
BIGSUB   1        0  210.61900E-01     0.000     0.000     6.672     3.994   393.950     0.000     0.000     0.000     0.064    25.688    25.057    24.528     0.064     0.000     0.000     0.000      0.000     0.073     0.000     0.000     0.000     0.000     0.000     0.000
BIGSUB   1        0  211.61900E-01     0.000     0.000     6.821     3.982   389.915     0.000     0.000     0.000     0.064    25.252    24.708    24.249     0.063     0.000     0.000     0.000      0.000     0.073     0.000     0.000     0.000     0.000     0.000     0.000
BIGSUB   1        0  212.61900E-01     0.300     0.000     1.938     1.099   389.064     0.000     0.000     0.000     0.064    24.573    24.129    23.753     0.063     0.000     0.000     0.000      0.000     0.073     0.000     0.000     0.000     0.000     0.000     0.000
BIGSUB   1        0  213.61900E-01     6.900     0.000     2.301     1.324   394.588     0.000     0.000     0.000     0.064    24.308    23.873    23.506     0.063     0.000     0.000     0.000      0.000     0.073     0.000     0.000     0.000     0.000     0.000     0.000
BIGSUB   1        0  214.61900E-01     0.000     0.000     4.258     2.497   392.038     0.000     0.000     0.000     0.063    24.078    23.654    23.296     0.063     0.000     0.000     0.000      0.000     0.073     0.000     0.000     0.000     0.000     0.000     0.000
BIGSUB   1        0  215.61900E-01     0.000     0.000     5.124     2.932   389.054     0.000     0.000     0.000     0.063    24.462    23.954    23.528     0.062     0.000     0.000     0.000      0.000     0.073     0.000     0.000     0.000     0.000     0.000     0.000
BIGSUB   1        0  216.61900E-01     0.000     0.000     6.396     3.624   385.378     0.000     0.000     0.000     0.063    24.442    23.945    23.528     0.062     0.000     0.000     0.000      0.000     0.073     0.000     0.000     0.000     0.000     0.000     0.000
BIGSUB   1        0  217.61900E-01     0.000     0.000     5.327     2.948   382.378     0.000     0.000     0.000     0.063    24.922    24.348    23.868     0.062     0.000     0.000     0.000      0.000     0.073     0.000     0.000     0.000     0.000     0.000     0.000
BIGSUB   1        0  218.61900E-01     0.000     0.000     6.002     3.341   378.986     0.000     0.000     0.000     0.062    25.198    24.604    24.105     0.062     0.000     0.000     0.000      0.000     0.073     0.000     0.000     0.000     0.000     0.000     0.000
BIGSUB   1        0  219.61900E-01     0.500     0.000     2.466     1.227   378.208     0.000     0.000     0.000     0.062    25.300    24.712    24.218     0.062     0.000     0.000     0.000      0.000     0.073     0.000     0.000     0.000     0.000     0.000     0.000
BIGSUB   1        0  220.61900E-01     0.000     0.000     5.434     2.966   375.190     0.000     0.000     0.000     0.062    24.714    24.235    23.829     0.061     0.000     0.000     0.000      0.000     0.073     0.000     0.000     0.000     0.000     0.000     0.000
BIGSUB   1        0  221.61900E-01     0.000     0.000     5.234     2.885   372.254     0.000     0.000     0.000     0.062    24.699    24.203    23.785     0.061     0.000     0.000     0.000      0.000     0.073     0.000     0.000     0.000     0.000     0.000     0.000
BIGSUB   1        0  222.61900E-01     0.000     0.000     7.550     3.743   368.460     0.000     0.000     0.000     0.062    24.525    24.051    23.652     0.061     0.000     0.000     0.000      0.000     0.073     0.000     0.000     0.000     0.000     0.000     0.000
BIGSUB   1        0  223.61900E-01     0.500     0.000     1.439     0.649   368.261     0.000     0.000     0.000     0.061    25.410    24.787    24.267     0.061     0.000     0.000     0.000      0.000     0.073     0.000     0.000     0.000     0.000     0.000     0.000
BIGSUB   1        0  224.61900E-01     0.000     0.000     5.276     2.392   365.819     0.000     0.000     0.000     0.061    25.704    25.072    24.542     0.060     0.000     0.000     0.000      0.000     0.073     0.000     0.000     0.000     0.000     0.000     0.000
BIGSUB   1        0  225.61900E-01     0.000     0.000     5.184     2.257   363.512     0.000     0.000     0.000     0.061    26.192    25.511    24.940     0.060     0.000     0.000     0.000      0.000     0.073     0.000     0.000     0.000     0.000     0.000     0.000
BIGSUB   1        0  226.61900E-01     0.000     0.000     7.378     3.124   360.338     0.000     0.000     0.000     0.061    26.758    26.025    25.410     0.060     0.000     0.000     0.000      0.000     0.073     0.000     0.000     0.000     0.000     0.000     0.000
BIGSUB   1        0  227.61900E-01    55.100     0.000     3.742     3.282   412.106     0.000     0.000     0.000     0.060    26.237    25.630    25.118     0.060     0.000     0.000     0.000      0.000     0.073     0.000     0.000     0.000     0.000     0.000     0.000
BIGSUB   1        0  228.61900E-01    18.500     0.000     1.810     1.643   428.914     0.000     0.000     0.000     0.060    24.272    23.961    23.721     0.060     0.000     0.000     0.000      0.000     0.073     0.000     0.000     0.000     0.000     0.000     0.000
BIGSUB   1        0  229.61900E-01     4.300     0.000     1.042     0.865   432.299     0.000     0.000     0.000     0.060    23.325    23.112    22.962     0.059     0.000     0.000     0.000      0.000     0.073     0.000     0.000     0.000     0.000     0.000     0.000
BIGSUB   1        0  230.61900E-01    45.700     0.000     2.568     2.498   448.369     0.528    19.731     0.000    19.797    23.054    22.853    22.704     0.065     0.666     0.000     0.000      0.000     0.073     1.189     2.133     0.261     0.000     0.000     0.000
BIGSUB   1        0  231.61900E-01     0.500     0.000     3.931     3.753   445.058     0.000     4.918     0.000     4.983    23.048    22.867    22.705     0.065     0.166     0.000     0.000      0.000     0.073     0.000     0.532     0.065     0.000     0.000     0.000
BIGSUB   1        0  232.61900E-01     0.000     0.000     4.752     4.425   440.574     0.000     1.226     0.000     1.291    23.129    22.919    22.737     0.065     0.041     0.000     0.000      0.000     0.073     0.000     0.133     0.016     0.000     0.000     0.000
BIGSUB   1        0  233.61900E-01     4.100     0.000     1.657     1.657   442.959     0.000     0.305     0.000     0.371    23.419    23.159    22.941     0.065     0.010     0.000     0.000      0.000     0.073     0.000     0.033     0.004     0.000     0.000     0.000
BIGSUB   1        0  234.61900E-01    48.500     0.000     1.298     1.114   452.253     0.127    23.174     0.000    26.260    22.732    22.554    22.405     0.070     0.971     0.000     0.000      0.000     0.073     1.971     3.109     0.381     0.000     0.000     3.016
BIGSUB   1        0  235.61900E-01     0.000     0.000     4.164     3.844   448.349     0.000     5.776     0.000     5.846    21.837    21.747    21.662     0.069     0.242     0.000     0.000      0.000     0.073     0.000     0.775     0.095     0.000     0.000     0.000
BIGSUB   1        0  236.61900E-01     0.000     0.000     4.310     4.055   444.234     0.000     1.439     0.000     1.509    21.304    21.219    21.144     0.069     0.060     0.000     0.000      0.000     0.073     0.000     0.193     0.024     0.000     0.000     0.000
BIGSUB   1        0  237.61900E-01     0.000     0.000     4.422     4.422   439.752     0.000     0.359     0.000     0.429    21.351    21.214    21.097     0.069     0.015     0.000     0.000      0.000     0.073     0.000     0.048     0.006     0.000     0.000     0.000
BIGSUB   1        0  238.61900E-01    17.800     0.000     2.867     2.475   450.891     0.000     0.089     0.000     1.918    21.852    21.629    21.447     0.071     0.004     0.000     0.000      0.000     0.073     0.000     0.012     0.001     0.000     0.000     1.756
BIGSUB   1        0  239.61900E-01     0.000     0.000     5.625     5.625   445.205     0.000     0.022     0.000     0.094    22.532    22.276    22.049     0.071     0.001     0.000     0.000      0.000     0.073     0.000     0.003     0.000     0.000     0.000     0.000
BIGSUB   1        0  240.61900E-01     0.000     0.000     7.879     7.222   437.923     0.000     0.006     0.000     0.077    23.110    22.800    22.536     0.071     0.000     0.000     0.000      0.000     0.073     0.000     0.001     0.000     0.000     0.000     0.000
BIGSUB   1        0  241.61900E-01     2.300     0.000     2.178     1.725   438.438     0.000     0.001     0.000     0.073    23.702    23.325    23.019     0.071     0.000     0.000     0.000      0.000     0.073     0.000     0.000     0.000     0.000     0.000     0.000
BIGSUB   1        0  242.61900E-01     7.900     0.000     2.630     2.272   444.006     0.000     0.000     0.000     0.071    24.039    23.649    23.335     0.070     0.000     0.000     0.000      0.000     0.073     0.000     0.000     0.000     0.000     0.000     0.000
BIGSUB   1        0  243.61900E-01     0.000     0.000     5.826     4.756   439.190     0.000     0.000     0.000     0.071    24.046    23.675    23.388     0.070     0.000     0.000     0.000      0.000     0.073     0.000     0.000     0.000     0.000     0.000     0.000
BIGSUB   1        0  244.61900E-01     2.800     0.000     1.449     0.992   440.937     0.000     0.000     0.000     0.071    24.163    23.769    23.474     0.070     0.000     0.000     0.000      0.000     0.073     0.000     0.000     0.000     0.000     0.000     0.000
BIGSUB   1        0  245.61900E-01     0.800     0.000     1.106     0.863   440.815     0.000     0.000     0.000     0.070    23.059    22.824    22.645     0.070     0.000     0.000     0.000      0.000     0.073     0.000     0.000     0.000     0.000     0.000     0.000
BIGSUB   1        0  246.61900E-01     0.000     0.000     4.256     3.220   437.535     0.000     0.000     0.000     0.070    22.330    22.145    22.005     0.070     0.000     0.000     0.000      0.000     0.073     0.000     0.000     0.000     0.000     0.000     0.000
BIGSUB   1        0  247.61900E-01     0.000     0.000     5.343     4.050   433.425     0.000     0.000     0.000     0.070    21.822    21.650    21.522     0.069     0.000     0.000     0.000      0.000     0.073     0.000     0.000     0.000     0.000     0.000     0.000
BIGSUB   1        0  248.61900E-01     0.000     0.000     4.221     3.207   430.158     0.000     0.000     0.000     0.070    21.462    21.290    21.163     0.069     0.000     0.000     0.000      0.000     0.073     0.000     0.000     0.000     0.000     0.000     0.000
BIGSUB   1        0  249.61900E-01     0.000     0.000     7.580     4.953   425.145     0.000     0.000     0.000     0.070    21.445    21.232    21.076     0.069     0.000     0.000     0.000      0.000     0.073     0.000     0.000     0.000     0.000     0.000     0.000
BIGSUB   1        0  250.61900E-01     0.000     0.000     6.611     4.102   420.982     0.000     0.000     0.000     0.069    21.952    21.636    21.406     0.069     0.000     0.000     0.000      0.000     0.073     0.000     0.000     0.000     0.000     0.000     0.000
BIGSUB   1        0  251.61900E-01     0.000     0.000     5.519     3.727   417.196     0.000     0.000     0.000     0.069    22.495    22.102    21.816     0.069     0.000     0.000     0.000      0.000     0.073     0.000     0.000     0.000     0.000     0.000     0.000
BIGSUB   1        0  252.61900E-01     0.000     0.000     5.633     3.291   413.845     0.000     0.000     0.000     0.069    23.297    22.802    22.440     0.068     0.000     0.000     0.000      0.000     0.073     0.000     0.000     0.000     0.000     0.000     0.000
BIGSUB   1        0  253.61900E-01     6.600     0.000     1.196     0.591   419.794     0.000     0.000     0.000     0.069    23.944    23.390    22.984     0.068     0.000     0.000     0.000      0.000     0.073     0.000     0.000     0.000     0.000     0.000     0.000
BIGSUB   1        0  254.61900E-01     4.300     0.000     1.692     0.885   423.150     0.000     0.000     0.000     0.069    24.228    23.677    23.271     0.068     0.000     0.000     0.000      0.000     0.073     0.000     0.000     0.000     0.000     0.000     0.000
BIGSUB   1        0  255.61900E-01     7.100     0.000     1.537     0.815   429.375     0.000     0.000     0.000     0.069    23.366    22.983    22.697     0.068     0.000     0.000     0.000      0.000     0.073     0.000     0.000     0.000     0.000     0.000     0.000
BIGSUB   1        0  256.61900E-01     0.000     0.000     4.054     2.318   426.998     0.000     0.000     0.000     0.068    22.434    22.169    21.971     0.068     0.000     0.000     0.000      0.000     0.073     0.000     0.000     0.000     0.000     0.000     0.000
BIGSUB   1        0  257.61900E-01     0.000     0.000     5.502     3.089   423.849     0.000     0.000     0.000     0.068    21.877    21.646    21.473     0.067     0.000     0.000     0.000      0.000     0.073     0.000     0.000     0.000     0.000     0.000     0.000
BIGSUB   1        0  258.61900E-01     0.000     0.000     3.804     2.353   421.437     0.000     0.000     0.000     0.068    21.846    21.566    21.359     0.067     0.000     0.000     0.000      0.000     0.073     0.000     0.000     0.000     0.000     0.000     0.000
BIGSUB   1        0  259.61900E-01     2.000     0.000     2.160     0.981   422.397     0.000     0.000     0.000     0.068    21.427    21.189    21.011     0.067     0.000     0.000     0.000      0.000     0.073     0.000     0.000     0.000     0.000     0.000     0.000
BIGSUB   1        0  260.61900E-01     0.000     0.000     5.139     2.484   419.854     0.000     0.000     0.000     0.068    21.206    20.965    20.786     0.067     0.000     0.000     0.000      0.000     0.073     0.000     0.000     0.000     0.000     0.000     0.000
BIGSUB   1        0  261.61900E-01     4.300     0.000     1.048     0.471   423.624     0.000     0.000     0.000     0.067    21.721    21.360    21.095     0.067     0.000     0.000     0.000      0.000     0.073     0.000     0.000     0.000     0.000     0.000     0.000
BIGSUB   1        0  262.61900E-01     5.800     0.000     2.118     1.003   428.362     0.000     0.000     0.000     0.067    21.408    21.107    20.884     0.067     0.000     0.000     0.000      0.000     0.073     0.000     0.000     0.000     0.000     0.000     0.000
BIGSUB   1        0  263.61900E-01     0.000     0.000     3.704     1.766   426.537     0.000     0.000     0.000     0.067    21.409    21.086    20.856     0.066     0.000     0.000     0.000      0.000     0.073     0.000     0.000     0.000     0.000     0.000     0.000
BIGSUB   1        0  264.61900E-01     0.000     0.000     4.496     1.902   424.575     0.000     0.000     0.000     0.067    21.370    21.045    20.812     0.066     0.000     0.000     0.000      0.000     0.073     0.000     0.000     0.000     0.000     0.000     0.000
BIGSUB   1        0  265.61900E-01     0.000     0.000     5.117     2.125   422.391     0.000     0.000     0.000     0.067    21.615    21.239    20.970     0.066     0.000     0.000     0.000      0.000     0.073     0.000     0.000     0.000     0.000     0.000     0.000
BIGSUB   1        0  266.61900E-01     0.000     0.000     4.044     1.604   420.729     0.000     0.000     0.000     0.067    21.828    21.424    21.134     0.066     0.000     0.000     0.000      0.000     0.073     0.000     0.000     0.000     0.000     0.000     0.000
BIGSUB   1        0  267.61900E-01     0.000     0.000     4.928     1.726   418.944     0.000     0.000     0.000     0.067    22.083    21.648    21.335     0.066     0.000     0.000     0.000      0.000     0.073     0.000     0.000     0.000     0.000     0.000     0.000
BIGSUB   1        0  268.61900E-01     0.000     0.000     6.523     2.058   416.827     0.000     0.000     0.000     0.066    22.357    21.893    21.558     0.066     0.000     0.000     0.000      0.000     0.073     0.000     0.000     0.000     0.000     0.000     0.000
BIGSUB   1        0  269.61900E-01     0.000     0.000     6.093     1.825   414.943     0.000     0.000     0.000     0.066    21.908    21.543    21.276     0.066     0.000     0.000     0.000      0.000     0.073     0.000     0.000     0.000     0.000     0.000     0.000
BIGSUB   1        0  270.61900E-01     0.000     0.000     6.524     1.892   412.993     0.000     0.000     0.000     0.066    21.885    21.508    21.233     0.065     0.000     0.000     0.000      0.000     0.073     0.000     0.000     0.000     0.000     0.000     0.000
BIGSUB   1        0  271.61900E-01     4.600     0.000     0.695     0.197   417.337     0.000     0.000     0.000     0.066    19.482    19.505    19.514     0.065     0.000     0.000     0.000      0.000     0.073     0.000     0.000     0.000     0.000     0.000     0.000
BIGSUB   1        0  272.61900E-01    19.600     0.000     0.961     0.365   436.514     0.000     0.000     0.000     0.066    18.770    18.780    18.784     0.065     0.000     0.000     0.000      0.000     0.073     0.000     0.000     0.000     0.000     0.000     0.000
BIGSUB   1        0  273.61900E-01    17.300     0.000     0.711     0.270   452.735     0.695     0.000     0.000     0.067    17.165    17.366    17.495     0.066     0.000     0.000     0.000      0.000     0.073     0.000     0.000     0.000     0.000     0.000     0.000
BIGSUB   1        0  274.61900E-01    11.700     0.000     0.630     0.239   453.128     0.029     3.807     0.000     6.392    16.649    16.736    16.813     0.069     0.125     0.000     0.000      0.000     0.073     0.257     0.399     0.049     0.000     0.000     2.515
BIGSUB   1        0  275.61900E-01    20.300     0.000     0.259     0.259   453.108     0.025    10.314     0.000    13.587    14.503    14.748    14.965     0.073     0.361     0.000     0.000      0.000     0.073     0.577     1.156     0.142     0.000     0.000     3.198
BIGSUB   1        0  276.61900E-01    15.200     0.000     1.776     1.776   451.590     0.000     8.590     0.000    11.594    15.094    15.164    15.230     0.077     0.243     0.000     0.000      0.000     0.073     0.016     0.780     0.095     0.000     0.000     2.926
BIGSUB   1        0  277.61900E-01     0.000     0.000     2.432     2.320   449.210     0.000     2.141     0.000     2.218    15.150    15.193    15.232     0.076     0.061     0.000     0.000      0.000     0.073     0.000     0.194     0.024     0.000     0.000     0.000
BIGSUB   1        0  278.61900E-01     0.000     0.000     4.701     4.701   444.448     0.000     0.534     0.000     0.610    15.278    15.288    15.298     0.076     0.015     0.000     0.000      0.000     0.073     0.000     0.048     0.006     0.000     0.000     0.000
BIGSUB   1        0  279.61900E-01     0.000     0.000     4.260     4.247   440.140     0.000     0.133     0.000     0.209    16.327    16.209    16.111     0.076     0.004     0.000     0.000      0.000     0.073     0.000     0.012     0.001     0.000     0.000     0.000
BIGSUB   1        0  280.61900E-01     0.000     0.000     4.717     4.638   435.442     0.000     0.033     0.000     0.109    17.576    17.339    17.146     0.075     0.001     0.000     0.000      0.000     0.073     0.000     0.003     0.000     0.000     0.000     0.000
BIGSUB   1        0  281.61900E-01     0.000     0.000     2.622     2.577   432.804     0.000     0.008     0.000     0.084    18.625    18.308    18.056     0.075     0.000     0.000     0.000      0.000     0.073     0.000     0.001     0.000     0.000     0.000     0.000
BIGSUB   1        0  282.61900E-01     0.000     0.000     3.449     3.384   429.360     0.000     0.002     0.000     0.077    18.131    17.936    17.779     0.075     0.000     0.000     0.000      0.000     0.073     0.000     0.000     0.000     0.000     0.000     0.000
BIGSUB   1        0  283.61900E-01     0.000     0.000     2.571     2.526   426.773     0.000     0.001     0.000     0.076    15.917    16.007    16.069     0.074     0.000     0.000     0.000      0.000     0.073     0.000     0.000     0.000     0.000     0.000     0.000
BIGSUB   1        0  284.61900E-01     0.000     0.000     3.564     2.999   423.714     0.000     0.000     0.000     0.075    14.572    14.743    14.870     0.074     0.000     0.000     0.000      0.000     0.073     0.000     0.000     0.000     0.000     0.000     0.000
BIGSUB   1        0  285.61900E-01     0.000     0.000     2.012     1.540   422.114     0.000     0.000     0.000     0.075    14.176    14.307    14.405     0.074     0.000     0.000     0.000      0.000     0.073     0.000     0.000     0.000     0.000     0.000     0.000
BIGSUB   1        0  286.61900E-01     0.000     0.000     2.481     1.906   420.147     0.000     0.000     0.000     0.074    14.426    14.462    14.489     0.074     0.000     0.000     0.000      0.000     0.073     0.000     0.000     0.000     0.000     0.000     0.000
BIGSUB   1        0  287.61900E-01     1.300     0.000     0.345     0.242   421.145     0.000     0.000     0.000     0.074    15.867    15.676    15.537     0.073     0.000     0.000     0.000      0.000     0.073     0.000     0.000     0.000     0.000     0.000     0.000
[...]
BIGSUB   1        0  294.61900E-01     1.500     0.000     0.299     0.063   386.333     0.000     0.000     0.000     0.048    10.787    11.015    11.200     0.047     0.000     0.000     0.000      0.000     0.271     0.000     0.000     0.000     0.000     0.000     0.000
BIGSUB   1        0  295.61900E-01     0.000     0.000     1.375     0.321   385.969     0.000     0.000     0.000     0.047    10.425    10.655    10.844     0.047     0.000     0.000     0.000      0.000     0.271     0.000     0.000     0.000     0.000     0.000     0.000
BIGSUB   1        0  296.61900E-01     0.000     0.000     2.464     0.567   385.359     0.000     0.000     0.000     0.047     9.730    10.029    10.275     0.047     0.000     0.000     0.000      0.000     0.271     0.000     0.000     0.000     0.000     0.000     0.000
BIGSUB   1        0  297.61900E-01     0.000     0.000     2.603     0.599   384.716     0.000     0.000     0.000     0.047     9.702     9.947    10.150     0.047     0.000     0.000     0.000      0.000     0.271     0.000     0.000     0.000     0.000     0.000     0.000
BIGSUB   1        0  298.61900E-01     0.000     0.000     4.184     0.968   383.705     0.000     0.000     0.000     0.047    11.272    11.229    11.200     0.047     0.000     0.000     0.000      0.000     0.271     0.000     0.000     0.000     0.000     0.000     0.000
BIGSUB   1        0  299.61900E-01     0.000     0.000     2.807     0.678   382.984     0.000     0.000     0.000     0.047    12.505    12.317    12.165     0.047     0.000     0.000     0.000      0.000     0.271     0.000     0.000     0.000     0.000     0.000     0.000
BIGSUB   1        0  300.61900E-01     0.000     0.000     4.130     0.965   381.976     0.000     0.000     0.000     0.047    13.704    13.395    13.142     0.047     0.000     0.000     0.000      0.000     0.271     0.000     0.000     0.000     0.000     0.000     0.000
BIGSUB   1        0  301.61900E-01     3.400     0.000     0.703     0.185   385.148     0.000     0.000     0.000     0.047    14.581    14.217    13.917     0.047     0.000     0.000     0.000      0.000     0.271     0.000     0.000     0.000     0.000     0.000     0.000
BIGSUB   1        0  302.61900E-01    18.600     0.000     0.402     0.137   403.568     0.000     0.000     0.000     0.047    13.266    13.197    13.134     0.047     0.000     0.000     0.000      0.000     0.271     0.000     0.000     0.000     0.000     0.000     0.000
BIGSUB   1        0  303.61900E-01     1.800     0.000     0.618     0.226   405.098     0.000     0.000     0.000     0.047    11.075    11.352    11.559     0.047     0.000     0.000     0.000      0.000     0.271     0.000     0.000     0.000     0.000     0.000     0.000
BIGSUB   1        0  304.61900E-01     0.000     0.000     2.374     0.864   404.192     0.000     0.000     0.000     0.047     9.282     9.750    10.097     0.047     0.000     0.000     0.000      0.000     0.271     0.000     0.000     0.000     0.000     0.000     0.000
BIGSUB   1        0  305.61900E-01     0.000     0.000     2.017     0.717   403.432     0.000     0.000     0.000     0.047     6.437     7.249     7.853     0.047     0.000     0.000     0.000      0.000     0.271     0.000     0.000     0.000     0.000     0.000     0.000
BIGSUB   1        0  306.61900E-01     0.000     0.000     1.652     0.580   402.808     0.000     0.000     0.000     0.047     5.160     5.972     6.582     0.046     0.000     0.000     0.000      0.000     0.271     0.000     0.000     0.000     0.000     0.000     0.000
BIGSUB   1        0  307.61900E-01     0.000     0.000     1.503     0.532   402.234     0.000     0.000     0.000     0.046     4.850     5.547     6.074     0.046     0.000     0.000     0.000      0.000     0.271     0.000     0.000     0.000     0.000     0.000     0.000
BIGSUB   1        0  308.61900E-01     0.000     0.000     2.481     0.856   401.335     0.000     0.000     0.000     0.046     6.099     6.479     6.771     0.046     0.000     0.000     0.000      0.000     0.271     0.000     0.000     0.000     0.000     0.000     0.000
BIGSUB   1        0  309.61900E-01     0.000     0.000     4.090     1.388   399.905     0.000     0.000     0.000     0.046     7.071     7.288     7.455     0.046     0.000     0.000     0.000      0.000     0.271     0.000     0.000     0.000     0.000     0.000     0.000
BIGSUB   1        0  310.61900E-01     0.300     0.000     0.217     0.067   400.096     0.000     0.000     0.000     0.046     7.843     7.959     8.050     0.046     0.000     0.000     0.000      0.000     0.271     0.000     0.000     0.000     0.000     0.000     0.000
BIGSUB   1        0  311.61900E-01     0.000     0.000     2.276     0.768   399.285     0.000     0.000     0.000     0.046     9.224     9.147     9.094     0.046     0.000     0.000     0.000      0.000     0.271     0.000     0.000     0.000     0.000     0.000     0.000
BIGSUB   1        0  312.61900E-01     0.000     0.000     3.326     1.040   398.202     0.000     0.000     0.000     0.046     9.825     9.730     9.660     0.046     0.000     0.000     0.000      0.000     0.271     0.000     0.000     0.000     0.000     0.000     0.000
BIGSUB   1        0  313.61900E-01     0.000     0.000     4.565     1.992   396.168     0.000     0.000     0.000     0.046    11.154    10.897    10.707     0.046     0.000     0.000     0.000      0.000     0.271     0.000     0.000     0.000     0.000     0.000     0.000
BIGSUB   1        0  314.61900E-01     0.000     0.000     3.046     1.276   394.849     0.000     0.000     0.000     0.046    10.660    10.587    10.529     0.046     0.000     0.000     0.000      0.000     0.271     0.000     0.000     0.000     0.000     0.000     0.000
BIGSUB   1        0  315.61900E-01     0.000     0.000     2.696     1.107   393.699     0.000     0.000     0.000     0.046     9.504     9.642     9.744     0.046     0.000     0.000     0.000      0.000     0.271     0.000     0.000     0.000     0.000     0.000     0.000
BIGSUB   1        0  316.61900E-01     0.000     0.000     1.805     0.722   392.935     0.000     0.000     0.000     0.046     8.021     8.363     8.620     0.046     0.000     0.000     0.000      0.000     0.271     0.000     0.000     0.000     0.000     0.000     0.000
BIGSUB   1        0  317.61900E-01     0.000     0.000     1.484     0.579   392.314     0.000     0.000     0.000     0.046     7.512     7.850     8.107     0.046     0.000     0.000     0.000      0.000     0.271     0.000     0.000     0.000     0.000     0.000     0.000
BIGSUB   1        0  318.61900E-01     0.000     0.000     2.327     0.910   391.362     0.000     0.000     0.000     0.046     7.337     7.643     7.877     0.046     0.000     0.000     0.000      0.000     0.271     0.000     0.000     0.000     0.000     0.000     0.000
BIGSUB   1        0  319.61900E-01     0.000     0.000     1.649     0.633   390.687     0.000     0.000     0.000     0.046     7.114     7.418     7.651     0.045     0.000     0.000     0.000      0.000     0.271     0.000     0.000     0.000     0.000     0.000     0.000
BIGSUB   1        0  320.61900E-01     0.000     0.000     1.954     0.745   389.900     0.000     0.000     0.000     0.046     7.661     7.839     7.979     0.045     0.000     0.000     0.000      0.000     0.271     0.000     0.000     0.000     0.000     0.000     0.000
BIGSUB   1        0  321.61900E-01    15.600     0.000     0.744     0.379   405.079     0.000     0.000     0.000     0.045     9.149     9.088     9.047     0.045     0.000     0.000     0.000      0.000     0.271     0.000     0.000     0.000     0.000     0.000     0.000
BIGSUB   1        0  322.61900E-01     0.000     0.000     0.956     0.483   404.554     0.000     0.000     0.000     0.045     8.046     8.249     8.396     0.045     0.000     0.000     0.000      0.000     0.271     0.000     0.000     0.000     0.000     0.000     0.000
BIGSUB   1        0  323.61900E-01     0.000     0.000     1.832     0.930   403.582     0.000     0.000     0.000     0.045     6.660     7.064     7.361     0.045     0.000     0.000     0.000      0.000     0.271     0.000     0.000     0.000     0.000     0.000     0.000
BIGSUB   1        0  324.61900E-01     0.300     0.000     0.875     0.427   403.413     0.000     0.000     0.000     0.045     6.145     6.551     6.853     0.045     0.000     0.000     0.000      0.000     0.271     0.000     0.000     0.000     0.000     0.000     0.000
BIGSUB   1        0  325.61900E-01    10.800     0.000     0.138     0.075   414.096     0.000     0.000     0.000     0.045     5.652     6.080     6.397     0.045     0.000     0.000     0.000      0.000     0.271     0.000     0.000     0.000     0.000     0.000     0.000
BIGSUB   1        0  326.61900E-01     0.000     0.000     1.372     0.743   413.311     0.000     0.000     0.000     0.045     5.892     6.222     6.448     0.045     0.000     0.000     0.000      0.000     0.271     0.000     0.000     0.000     0.000     0.000     0.000
BIGSUB   1        0  327.61900E-01     0.000     0.000     1.016     0.550   412.719     0.000     0.000     0.000     0.045     5.341     5.746     6.020     0.045     0.000     0.000     0.000      0.000     0.271     0.000     0.000     0.000     0.000     0.000     0.000
BIGSUB   1        0  328.61900E-01     0.000     0.000     1.712     0.941   411.736     0.000     0.000     0.000     0.045     5.062     5.465     5.739     0.045     0.000     0.000     0.000      0.000     0.271     0.000     0.000     0.000     0.000     0.000     0.000
BIGSUB   1        0  329.61900E-01     0.000     0.000     1.128     0.621   411.073     0.000     0.000     0.000     0.045     3.595     4.209     4.625     0.045     0.000     0.000     0.000      0.000     0.271     0.000     0.000     0.000     0.000     0.000     0.000
BIGSUB   1        0  330.61900E-01     4.000     4.000     0.116     0.063   414.968     0.000     0.000     0.000     0.045     2.437     3.142     3.621     0.045     0.000     0.000     0.000      0.000     0.271     0.000     0.000     0.000     0.000     0.000     0.000
BIGSUB   1        0  331.61900E-01     0.000     0.000     2.487     1.362   413.564     0.000     0.000     0.000     0.045     2.068     2.723     3.164     0.045     0.000     0.000     0.000      0.000     0.271     0.000     0.000     0.000     0.000     0.000     0.000
BIGSUB   1        0  332.61900E-01     0.000     0.000     0.859     0.465   413.057     0.000     0.000     0.000     0.045     0.264     1.152     1.748     0.045     0.000     0.000     0.000      0.000     0.271     0.000     0.000     0.000     0.000     0.000     0.000
BIGSUB   1        0  333.61900E-01     0.000     0.000     1.164     0.639   412.376     0.000     0.000     0.000     0.045    -1.524    -0.478     0.226     0.045     0.000     0.000     0.000      0.000     0.271     0.000     0.000     0.000     0.000     0.000     0.000
BIGSUB   1        0  334.61900E-01     0.000     0.000     2.160     1.184   411.151     0.000     0.000     0.000     0.045    -1.394    -0.545     0.030     0.045     0.000     0.000     0.000      0.000     0.271     0.000     0.000     0.000     0.000     0.000     0.000
BIGSUB   1        0  335.61900E-01     4.200     0.000     0.421     0.228   415.081     0.000     0.000     0.000     0.045     1.901     2.101     2.244     0.044     0.000     0.000     0.000      0.000     0.271     0.000     0.000     0.000     0.000     0.000     0.000
BIGSUB   1        0  336.61900E-01     0.200     0.000     0.232     0.126   415.189     0.000     0.000     0.000     0.044     3.412     3.475     3.531     0.044     0.000     0.000     0.000      0.000     0.271     0.000     0.000     0.000     0.000     0.000     0.000
BIGSUB   1        0  337.61900E-01     0.000     0.000     1.263     0.693   414.550     0.000     0.000     0.000     0.044     4.233     4.281     4.317     0.044     0.000     0.000     0.000      0.000     0.271     0.000     0.000     0.000     0.000     0.000     0.000
BIGSUB   1        0  338.61900E-01     0.000     0.000     1.123     0.625   413.884     0.000     0.000     0.000     0.044     3.901     4.097     4.231     0.044     0.000     0.000     0.000      0.000     0.271     0.000     0.000     0.000     0.000     0.000     0.000
BIGSUB   1        0  339.61900E-01     1.500     1.500     0.135     0.073   415.269     0.000     0.000     0.000     0.044     3.268     3.595     3.815     0.044     0.000     0.000     0.000      0.000     0.271     0.000     0.000     0.000     0.000     0.000     0.000
BIGSUB   1        0  340.61900E-01     0.000     0.000     1.024     0.554   414.673     0.000     0.000     0.000     0.044     2.224     2.711     3.037     0.044     0.000     0.000     0.000      0.000     0.271     0.000     0.000     0.000     0.000     0.000     0.000
BIGSUB   1        0  341.61900E-01     0.000     0.000     0.538     0.292   414.340     0.000     0.000     0.000     0.044     1.596     2.128     2.486     0.044     0.000     0.000     0.000      0.000     0.271     0.000     0.000     0.000     0.000     0.000     0.000
BIGSUB   1        0  342.61900E-01     0.000     0.000     0.995     0.548   413.751     0.000     0.000     0.000     0.044     3.367     3.531     3.648     0.044     0.000     0.000     0.000      0.000     0.271     0.000     0.000     0.000     0.000     0.000     0.000
BIGSUB   1        0  343.61900E-01     8.100     0.000     0.071     0.038   421.771     0.000     0.000     0.000     0.044     6.909     6.536     6.295     0.044     0.000     0.000     0.000      0.000     0.271     0.000     0.000     0.000     0.000     0.000     0.000
BIGSUB   1        0  344.61900E-01     0.000     0.000     0.784     0.425   421.305     0.000     0.000     0.000     0.044     6.895     6.780     6.699     0.044     0.000     0.000     0.000      0.000     0.271     0.000     0.000     0.000     0.000     0.000     0.000
BIGSUB   1        0  345.61900E-01     0.300     0.000     0.137     0.074   421.263     0.000     0.000     0.000     0.044     3.247     3.743     4.083     0.044     0.000     0.000     0.000      0.000     0.271     0.000     0.000     0.000     0.000     0.000     0.000
BIGSUB   1        0  346.61900E-01     0.000     0.000     0.744     0.403   420.819     0.000     0.000     0.000     0.044    -0.528     0.368     0.988     0.044     0.000     0.000     0.000      0.000     0.271     0.000     0.000     0.000     0.000     0.000     0.000
BIGSUB   1        0  347.61900E-01     0.000     0.226     1.254     0.679   420.325     0.000     0.000     0.000     0.044     0.181     0.730     1.119     0.044     0.000     0.000     0.000      0.000     0.271     0.000     0.000     0.000     0.000     0.000     0.000
BIGSUB   1        0  348.61900E-01     0.000     0.000     0.907     0.491   419.793     0.000     0.000     0.000     0.044    -0.011     0.518     0.890     0.044     0.000     0.000     0.000      0.000     0.271     0.000     0.000     0.000     0.000     0.000     0.000
BIGSUB   1        0  349.61900E-01     0.000     0.000     1.918     1.052   418.700     0.000     0.000     0.000     0.044     0.468     0.880     1.173     0.044     0.000     0.000     0.000      0.000     0.271     0.000     0.000     0.000     0.000     0.000     0.000
BIGSUB   1        0  350.61900E-01     0.000     0.000     1.385     0.767   417.906     0.000     0.000     0.000     0.044     2.283     2.426     2.532     0.044     0.000     0.000     0.000      0.000     0.271     0.000     0.000     0.000     0.000     0.000     0.000
BIGSUB   1        0  351.61900E-01     6.100     0.000     0.000     0.000   423.964     0.000     0.000     0.000     0.044     5.634     5.366     5.188     0.044     0.000     0.000     0.000      0.000     0.271     0.000     0.000     0.000     0.000     0.000     0.000
BIGSUB   1        0  352.61900E-01     0.300     0.000     0.246     0.133   424.090     0.000     0.000     0.000     0.044     5.158     5.165     5.170     0.044     0.000     0.000     0.000      0.000     0.271     0.000     0.000     0.000     0.000     0.000     0.000
BIGSUB   1        0  353.61900E-01     0.000     0.000     0.862     0.466   423.582     0.000     0.000     0.000     0.044     2.949     3.279     3.519     0.043     0.000     0.000     0.000      0.000     0.271     0.000     0.000     0.000     0.000     0.000     0.000
BIGSUB   1        0  354.61900E-01     0.000     0.000     0.348     0.188   423.353     0.000     0.000     0.000     0.044     1.572     1.997     2.311     0.043     0.000     0.000     0.000      0.000     0.271     0.000     0.000     0.000     0.000     0.000     0.000
BIGSUB   1        0  355.61900E-01     0.000     0.000     0.740     0.401   422.911     0.000     0.000     0.000     0.043     1.650     1.980     2.228     0.043     0.000     0.000     0.000      0.000     0.271     0.000     0.000     0.000     0.000     0.000     0.000
BIGSUB   1        0  356.61900E-01     0.600     0.000     0.145     0.079   423.392     0.000     0.000     0.000     0.043     2.876     3.025     3.140     0.043     0.000     0.000     0.000      0.000     0.271     0.000     0.000     0.000     0.000     0.000     0.000
BIGSUB   1        0  357.61900E-01     4.700     0.000     0.062     0.034   428.017     0.000     0.000     0.000     0.043     4.585     4.560     4.547     0.043     0.000     0.000     0.000      0.000     0.271     0.000     0.000     0.000     0.000     0.000     0.000
BIGSUB   1        0  358.61900E-01     0.000     0.000     1.953     1.071   426.905     0.000     0.000     0.000     0.043     5.115     5.116     5.118     0.043     0.000     0.000     0.000      0.000     0.271     0.000     0.000     0.000     0.000     0.000     0.000
BIGSUB   1        0  359.61900E-01     0.600     0.000     0.092     0.050   427.414     0.000     0.000     0.000     0.043     7.278     7.079     6.931     0.043     0.000     0.000     0.000      0.000     0.271     0.000     0.000     0.000     0.000     0.000     0.000
BIGSUB   1        0  360.61900E-01     4.100     0.000     0.043     0.023   431.101     0.320     0.000     0.000     0.044     9.737     9.374     9.099     0.044     0.000     0.000     0.000      0.000     0.271     0.000     0.000     0.000     0.000     0.000     0.000
BIGSUB   1        0  361.61900E-01     0.300     0.000     0.039     0.021   431.329     0.002     0.000     0.000     0.044     7.661     7.695     7.719     0.044     0.000     0.000     0.000      0.000     0.271     0.000     0.000     0.000     0.000     0.000     0.000
BIGSUB   1        0  362.61900E-01     6.200     0.000     0.704     0.381   435.931     0.002     0.783     0.000     0.830     6.896     6.979     7.054     0.047     0.016     0.000     0.000      0.000     0.271     0.031     0.049     0.007     0.000     0.000     0.000
BIGSUB   1        0  363.61900E-01     0.000     0.000     0.867     0.469   435.416     0.000     0.195     0.000     0.242     5.724     5.905     6.065     0.047     0.004     0.000     0.000      0.000     0.271     0.000     0.012     0.002     0.000     0.000     0.000
BIGSUB   1        0  364.61900E-01     0.300     0.000     0.860     0.465   435.204     0.000     0.049     0.000     0.095     3.320     3.700     4.035     0.047     0.001     0.000     0.000      0.000     0.271     0.000     0.003     0.000     0.000     0.000     0.000
BIGSUB   1        0  365.61900E-01     1.100     1.100     0.000     0.000   436.174     0.084     0.012     0.000     0.059     2.184     2.571     2.917     0.046     0.000     0.000     0.000      0.000     0.271     0.000     0.001     0.000     0.000     0.000     0.000
