1
    SWAT Jan 13 2025   VER kalcic-nifafrozen                                                             0/ 0/   0      0: 0: 0

    General Input/Output section (file.cio):                                        
    8/10/2023 12:00:00 AM ARCGIS-SWAT interface AV                                  
                                                                                    


LULC  HRU       GIS  SUB  MGT  MON   AREAkm2  PRECIPmm SNOFALLmm SNOMELTmm     IRRmm     PETmm      ETmm SW_INITmm  SW_ENDmm    PERCmm GW_RCHGmm DA_RCHGmm   REVAPmm  SA_IRRmm  DA_IRRmm   SA_STmm   DA_STmm SURQGENmm SURQCNTmm   TLOSSmm LATQGENmm    GW_Qmm    WYLDmm   DAILYCN TMP_AVdgC  TMP_MXdC  TMP_MNdC SOL_TMPdC SOLRMJ/m2  SYLDt/ha  USLEt/ha SUR_TMPdC  wattblmm   QTILEmm SOLTMP3dc SOLTMP4dc SOLTMP5dc   VWC10mm   VWC20mm   VWC50mm Tno3kg/ha Sno3kg/ha    TPg/ha    SPg/ha
CORN    1 000010001    1    0    1.61900E-01     0.000     0.000     0.000     0.000     1.057     0.532   596.896   595.166     0.000     0.051     0.003     0.021     0.000     0.000   978.030  2000.219     0.000     0.012     0.000     0.159     0.000     2.281    97.248    -3.050    -1.100    -5.000     1.885     7.654     0.000     0.000     1.626   765.890    2.1073    2.4604    3.1452    4.9459    0.3475    0.4398    0.4488    0.0005    0.0000    0.0000    0.0005
CORN    1 000010001    1    0    2.61900E-01     0.000     0.000     0.000     0.000     0.948     0.480   595.166   593.783     0.000     0.049     0.002     0.019     0.000     0.000   978.058  2000.220     0.000     0.001     0.000     0.160     0.000     1.963    97.179    -3.050     0.000    -6.100     0.635     7.975     0.000     0.000     0.365   789.855    1.8003    1.2370    1.9645    3.9142    0.3460    0.4393    0.4473    0.0004    0.0000    0.0000    0.0000
CORN    1 000010001    1    0    3.61900E-01     0.000     0.000     0.000     0.000     1.175     0.591   593.783   592.481     0.000     0.048     0.002     0.024     0.000     0.000   978.080  2000.220     0.000     0.000     0.000     0.160     0.000     1.684    97.122    -1.100     2.200    -4.400     0.170     6.505     0.000     0.000    -0.072   807.944    1.5223    0.7105    1.3775    3.2082    0.3443    0.4384    0.4460    0.0003    0.0000    0.0000    0.0000
CORN    1 000010001    1    0    4.61900E-01     0.300     0.300     0.000     0.000     0.107     0.053   592.481   592.275     0.000     0.046     0.002     0.002     0.000     0.000   978.121  2000.220     0.000     0.000     0.000     0.160     0.000     1.347    98.833    -3.050    -1.100    -5.000    -0.678     7.074     0.000     0.000    -0.938   807.944    1.1856   -0.1043    0.5957    2.5009    0.3442    0.4383    0.4458    0.0003    0.0000    0.0000    0.0000
CORN    1 000010001    1    0    5.61900E-01     0.000     0.000     0.000     0.000     0.094     0.046   592.275   592.077     0.000     0.045     0.002     0.002     0.000     0.000   978.162  2000.220     0.000     0.000     0.000     0.159     0.000     1.085    98.833    -6.700    -1.700   -11.700    -2.315     4.679     0.000     0.000    -2.640   807.944    0.9233   -1.6113   -0.7688    1.4877    0.3440    0.4383    0.4455    0.0002    0.0000    0.0000    0.0000
CORN    1 000010001    1    0    6.61900E-01     0.000     0.000     0.000     0.000     0.695     0.342   592.077   591.587     0.000     0.043     0.002     0.014     0.000     0.000   978.189  2000.220     0.000     0.000     0.000     0.159     0.000     0.881    98.833    -5.850    -0.600   -11.100    -2.086     4.527     0.000     0.000    -2.356   807.944    0.7191   -1.5044   -0.8127    1.0668    0.3431    0.4376    0.4453    0.0002    0.0000    0.0000    0.0000
CORN    1 000010001    1    0    7.61900E-01     0.000     0.000     0.000     0.000     0.363     0.179   591.587   591.262     0.000     0.042     0.002     0.007     0.000     0.000   978.222  2000.220     0.000     0.000     0.000     0.159     0.000     0.721    98.833    -1.150     4.400    -6.700    -0.297     4.977     0.000     0.000    -0.435   807.944    0.5600    0.0057    0.3862    1.4920    0.3426    0.4372    0.4451    0.0001    0.0000    0.0000    0.0000
CORN    1 000010001    1    0    8.61900E-01     0.500     0.000     0.001     0.000     0.449     0.221   591.262   591.286     0.000     0.041     0.002     0.009     0.000     0.000   978.251  2000.220     0.000     0.000     0.000     0.159     0.000     0.671    97.016     2.500     8.300    -3.300     1.116     4.163     0.000     0.000     1.060   833.656    0.5102    1.2496    1.4501    2.1398    0.3448    0.4400    0.4451    0.0001    0.0000    0.0000    0.0000
CORN    1 000010001    1    0    9.61900E-01    10.200     0.000     0.000     0.000     0.529     0.278   591.286   598.306     0.533     0.056     0.003     0.011     0.000     0.000   978.294  2000.220     0.816     0.747     0.000     0.162     0.000     1.645    97.017     5.000     8.300     1.700     4.115     0.550     0.018     0.028     4.233   728.096    0.7336    3.8891    3.7075    3.5167    0.3502    0.4400    0.4511    0.0002    0.0000    0.1308    0.0312
CORN    1 000010001    1    0   10.61900E-01    23.900     0.000     0.000     0.000     0.567     0.279   598.306   601.687     0.037     0.056     0.003     0.011     0.000     0.000   978.336  2000.221    16.906    15.541     0.000     0.168     0.000    17.213    97.304     3.850     9.400    -1.700     3.964     2.141     0.762     0.431     3.999   603.217    1.5020    3.9166    3.9598    4.1039    0.3503    0.4400    0.4571    0.0006    0.0000    0.1244    0.6480
CORN    1 000010001    1    0   11.61900E-01     1.500     1.500     0.000     0.000     0.000     0.000   601.687   601.415     0.000     0.054     0.003     0.000     0.000     0.000   978.387  2000.222     0.000     1.313     0.000     0.170     0.000     2.655    98.833    -8.350    -1.100   -15.600    -1.277     3.655     0.000     0.000    -1.622   603.217    1.1698   -0.5139    0.3392    2.4227    0.3503    0.4400    0.4566    0.0004    0.0000    0.0000    0.0547
CORN    1 000010001    1    0   12.61900E-01     2.500     2.500     0.000     0.000     0.419     0.209   601.415   601.061     0.000     0.052     0.003     0.008     0.000     0.000   978.428  2000.222     0.000     0.111     0.000     0.169     0.000     1.194    98.833    -8.650    -1.700   -15.600    -6.109     0.948     0.000     0.000    -6.625   603.217    0.9110   -4.9541   -3.6159   -0.1964    0.3501    0.4400    0.4566    0.0003    0.0000    0.0000    0.0046
CORN    1 000010001    1    0   13.61900E-01     1.000     1.000     0.000     0.000     0.000     0.000   601.061   600.795     0.000     0.050     0.003     0.000     0.000     0.000   978.476  2000.222     0.000     0.009     0.000     0.172     0.000     0.893    98.833   -12.500    -5.600   -19.400    -2.112     5.823     0.000     0.000    -8.611   603.217    0.7095   -1.6613   -1.1316    0.2594    0.3501    0.4400    0.4559    0.0003    0.0000    0.0000    0.0004
CORN    1 000010001    1    0   14.61900E-01     0.500     0.500     0.000     0.000     0.347     0.174   600.795   600.674     0.000     0.049     0.002     0.007     0.000     0.000   978.515  2000.223     0.000     0.001     0.000     0.174     0.000     0.729    98.833   -11.650    -3.900   -19.400    -2.148     7.205     0.000     0.000   -10.004   603.217    0.5526   -1.7042   -1.1828    0.1835    0.3498    0.4400    0.4560    0.0002    0.0000    0.0000    0.0000
CORN    1 000010001    1    0   15.61900E-01     0.000     0.000     0.000     0.000     1.428     0.733   600.674   600.394     0.000     0.047     0.002     0.029     0.000     0.000   978.532  2000.223     0.000     0.000     0.000     0.175     0.000     0.608    98.833     1.100     6.100    -3.900    -0.154     8.984     0.000     0.000    -3.585   603.217    0.4303    0.0316    0.2684    0.9568    0.3498    0.4400    0.4556    0.0002    0.0000    0.0000    0.0000
CORN    1 000010001    1    0   16.61900E-01     5.800     0.000     0.000     0.000     0.213     0.107   600.394   601.300     0.126     0.050     0.002     0.004     0.000     0.000   978.575  2000.223     0.945     0.866     0.000     0.180     0.000     2.145    97.384     2.500     6.100    -1.100     1.275     4.716     0.055     0.007     0.652   632.224    1.0973    1.3212    1.4136    1.7912    0.3503    0.4400    0.4560    0.0005    0.0000    0.0792    0.0359
CORN    1 000010001    1    0   17.61900E-01     0.000     0.000     0.000     0.000     0.222     0.111   601.300   599.069     0.000     0.048     0.002     0.004     0.000     0.000   978.616  2000.223     0.000     0.073     0.000     0.181     0.000     1.523    97.418    -3.100    -0.600    -5.600     0.523     7.230     0.000     0.000    -2.651   707.520    1.2661    0.7233    0.9972    1.8511    0.3503    0.4400    0.4523    0.0006    0.0000    0.0000    0.0030
CORN    1 000010001    1    0   18.61900E-01     0.000     0.000     0.000     0.000     0.332     0.166   599.069   598.682     0.000     0.047     0.002     0.007     0.000     0.000   978.654  2000.223     0.000     0.006     0.000     0.182     0.000     1.177    98.833   -11.400    -5.000   -17.800    -1.178     6.499     0.000     0.000    -8.182   707.520    0.9860   -0.7498   -0.2224    1.2463    0.3502    0.4400    0.4519    0.0004    0.0000    0.0000    0.0003
CORN    1 000010001    1    0   19.61900E-01     0.000     0.000     0.000     0.000     0.635     0.318   598.682   598.147     0.000     0.045     0.002     0.013     0.000     0.000   978.684  2000.223     0.000     0.001     0.000     0.183     0.000     0.954    98.833   -14.200   -10.600   -17.800    -2.597     3.592     0.000     0.000   -12.138   707.520    0.7679   -2.0225   -1.3418    0.4643    0.3499    0.4400    0.4516    0.0003    0.0000    0.0000    0.0000
CORN    1 000010001    1    0   20.61900E-01     0.000     0.000     0.000     0.000     0.026     0.013   598.147   597.921     0.000     0.044     0.002     0.001     0.000     0.000   978.725  2000.223     0.000     0.000     0.000     0.184     0.000     0.784    98.833   -12.500    -7.800   -17.200    -2.600     6.060     0.000     0.000   -11.259   707.520    0.5981   -2.0791   -1.4692    0.1264    0.3499    0.4400    0.4512    0.0003    0.0000    0.0000    0.0000
CORN    1 000010001    1    0   21.61900E-01     0.800     0.800     0.000     0.000     0.000     0.000   597.921   597.351     0.000     0.042     0.002     0.000     0.000     0.000   978.766  2000.223     0.000     0.000     0.000     0.183     0.000     0.651    98.833   -11.400    -7.200   -15.600    -2.489     5.007     0.000     0.000   -10.444   707.520    0.4658   -2.0110   -1.4532   -0.0017    0.3499    0.4400    0.4512    0.0002    0.0000    0.0000    0.0000
CORN    1 000010001    1    0   22.61900E-01     0.000     0.000     0.000     0.000     0.000     0.000   597.351   596.357     0.000     0.041     0.002     0.000     0.000     0.000   978.805  2000.223     0.000     0.000     0.000     0.183     0.000     0.548    98.833    -8.900    -3.900   -13.900    -1.740     6.817     0.000     0.000    -8.765   707.520    0.3627   -1.3735   -0.9407    0.2022    0.3499    0.4400    0.4506    0.0002    0.0000    0.0000    0.0000
CORN    1 000010001    1    0   23.61900E-01     0.000     0.000     0.000     0.000     0.637     0.318   596.357   595.171     0.000     0.040     0.002     0.013     0.000     0.000   978.830  2000.223     0.000     0.000     0.000     0.184     0.000     0.468    98.833    -5.550    -3.900    -7.200    -1.024     7.513     0.000     0.000    -6.378   707.520    0.2825   -0.7414   -0.3998    0.5317    0.3477    0.4396    0.4502    0.0001    0.0000    0.0000    0.0000
CORN    1 000010001    1    0   24.61900E-01     0.000     0.000     0.000     0.000     0.686     0.343   595.171   593.838     0.000     0.038     0.002     0.014     0.000     0.000   978.852  2000.223     0.000     0.000     0.000     0.184     0.000     0.406    98.833    -6.950    -2.800   -11.100    -0.946     6.334     0.000     0.000    -6.497   707.520    0.2200   -0.6513   -0.2925    0.6957    0.3421    0.4388    0.4499    0.0001    0.0000    0.0000    0.0000
CORN    1 000010001    1    0   25.61900E-01     0.000     0.000     0.000     0.000     0.428     0.214   593.838   592.726     0.000     0.037     0.002     0.009     0.000     0.000   978.879  2000.222     0.000     0.000     0.000     0.184     0.000     0.358    98.833    -4.150     1.100    -9.400    -0.388     6.489     0.000     0.000    -4.731   707.520    0.1713   -0.1537    0.1400    0.9799    0.3374    0.4383    0.4495    0.0001    0.0000    0.0000    0.0000
CORN    1 000010001    1    0   26.61900E-01     0.000     0.000     0.000     0.000     0.033     0.016   592.726   591.513     0.000     0.036     0.002     0.001     0.000     0.000   978.913  2000.222     0.000     0.000     0.000     0.184     0.000     0.498    97.078     1.650     7.200    -3.900     0.912     6.086     0.000     0.000    -0.513   781.843    0.3116    0.9989    1.1326    1.6019    0.3364    0.4383    0.4478    0.0001    0.0000    0.0000    0.0000
CORN    1 000010001    1    0   27.61900E-01     0.000     0.000     0.000     0.000     0.126     0.063   591.513   591.576     0.000     0.035     0.002     0.003     0.000     0.000   978.944  2000.221     0.000     0.000     0.000     0.184     0.000     0.562    97.027    -3.050     0.600    -6.700     0.554     4.356     0.000     0.000    -2.592   801.725    0.3757    0.7313    0.9737    1.7374    0.3425    0.4382    0.4465    0.0001    0.0000    0.0000    0.0000
CORN    1 000010001    1    0   28.61900E-01     0.000     0.000     0.000     0.000     0.455     0.227   591.576   591.354     0.000     0.034     0.002     0.009     0.000     0.000   978.967  2000.221     0.000     0.000     0.000     0.184     0.000     0.581    97.030    -4.200    -1.700    -6.700     0.294     6.759     0.000     0.000    -3.733   817.186    0.3950    0.5182    0.8150    1.7206    0.3465    0.4376    0.4454    0.0001    0.0000    0.0000    0.0000
CORN    1 000010001    1    0   29.61900E-01     0.300     0.000     0.000     0.000     0.000     0.000   591.354   591.238     0.000     0.033     0.002     0.000     0.000     0.000   978.998  2000.220     0.000     0.000     0.000     0.183     0.000     0.573    97.020     0.550     6.100    -5.000     1.188     4.975     0.000     0.000    -0.628   829.581    0.3883    1.2981    1.4698    2.0770    0.3472    0.4400    0.4451    0.0001    0.0000    0.0000    0.0000
CORN    1 000010001    1    0   30.61900E-01     0.000     0.000     0.000     0.000     0.495     0.247   591.238   590.897     0.000     0.032     0.002     0.010     0.000     0.000   979.018  2000.220     0.000     0.000     0.000     0.182     0.000     0.553    97.015    -1.950     1.100    -5.000     0.989     5.030     0.000     0.000    -1.812   838.709    0.3687    1.1513    1.3854    2.1638    0.3465    0.4395    0.4451    0.0001    0.0000    0.0000    0.0000
CORN    1 000010001    1    0   31.61900E-01     0.000     0.000     5.463     0.000     1.443     0.725   590.897   594.712     0.501     0.047     0.002     0.029     0.000     0.000   979.034  2000.220     0.000     0.000     0.000     0.182     0.000     0.586    97.001     4.700    14.400    -5.000     2.113     6.825     0.000     0.000     1.990   810.862    0.4016    2.1389    2.2236    2.6514    0.3502    0.4400    0.4458    0.0001    0.0000    0.0672    0.0000
CORN    1 000010001    1    0   32.61900E-01     0.300     0.000     0.000     0.000     0.189     0.093   594.712   594.950     0.053     0.047     0.002     0.004     0.000     0.000   979.074  2000.220     0.000     0.000     0.000     0.182     0.000     0.593    97.160     3.600    14.400    -7.200     2.622     5.706     0.000     0.000     2.633   820.528    0.4091    2.6164    2.6744    3.0669    0.3503    0.4400    0.4452    0.0001    0.0000    0.0001    0.0000
CORN    1 000010001    1    0   33.61900E-01     0.000     0.000     0.000     0.000     1.320     0.662   594.950   595.151     0.000     0.045     0.002     0.026     0.000     0.000   979.091  2000.220     0.000     0.000     0.000     0.182     0.000     0.636    97.170     2.500     7.800    -2.800     2.612    10.099     0.000     0.000     2.610   801.457    0.4521    2.6391    2.7399    3.2634    0.3502    0.4400    0.4465    0.0001    0.0000    0.0023    0.0000
CORN    1 000010001    1    0   34.61900E-01    21.100     0.000     0.000     0.000     0.301     0.148   595.151   599.804     0.120     0.048     0.002     0.006     0.000     0.000   979.130  2000.220    13.543    12.399     0.000     0.185     0.000    13.455    97.178     7.200    13.300     1.100     4.018     6.572     1.062     0.129     4.071   682.254    0.8678    3.9274    3.9122    3.9718    0.3503    0.4400    0.4536    0.0003    0.0000    0.1337    0.5325
CORN    1 000010001    1    0   35.61900E-01     0.000     0.000     0.000     0.000     1.852     0.931   599.804   597.214     0.000     0.046     0.002     0.037     0.000     0.000   979.137  2000.220     0.000     1.047     0.000     0.187     0.000     2.227    97.362     5.250    13.300    -2.800     4.332     8.929     0.000     0.000     4.372   734.403    0.9907    4.2719    4.3066    4.4389    0.3497    0.4400    0.4508    0.0004    0.0000    0.0000    0.0450
CORN    1 000010001    1    0   36.61900E-01     0.000     0.000     0.000     0.000     1.083     0.533   597.214   597.218     0.000     0.045     0.002     0.022     0.000     0.000   979.158  2000.220     0.000     0.088     0.000     0.188     0.000     1.414    97.261    -5.550    -2.200    -8.900     2.229    10.375     0.000     0.000     2.123   720.471    1.1347    2.4888    2.8857    3.8821    0.3489    0.4400    0.4516    0.0005    0.0000    0.0000    0.0038
CORN    1 000010001    1    0   37.61900E-01     0.000     0.000     0.000     0.000     0.539     0.266   597.218   595.649     0.000     0.043     0.002     0.011     0.000     0.000   979.188  2000.220     0.000     0.007     0.000     0.189     0.000     1.323    97.261    -2.500     3.900    -8.900     1.163     9.201     0.000     0.000     0.995   758.162    1.1249    1.5540    2.0242    3.2747    0.3481    0.4399    0.4493    0.0005    0.0000    0.0000    0.0003
CORN    1 000010001    1    0   38.61900E-01     0.000     0.000     0.000     0.000     1.248     0.629   595.649   594.050     0.000     0.042     0.002     0.025     0.000     0.000   979.203  2000.220     0.000     0.001     0.000     0.189     0.000     1.240    97.198    -1.150     4.400    -6.700     0.655     9.098     0.000     0.000     0.487   784.161    1.0487    1.0414    1.5167    2.8137    0.3462    0.4394    0.4477    0.0005    0.0000    0.0000    0.0000
CORN    1 000010001    1    0   39.61900E-01     1.000     0.000     0.000     0.000     0.607     0.299   594.050   594.068     0.000     0.041     0.002     0.012     0.000     0.000   979.230  2000.220     0.000     0.000     0.000     0.188     0.000     1.136    97.133     4.700    10.000    -0.600     2.665     2.948     0.000     0.000     2.644   803.572    0.9458    2.7352    2.8691    3.3649    0.3494    0.4398    0.4464    0.0004    0.0000    0.0098    0.0000
CORN    1 000010001    1    0   40.61900E-01     0.300     0.000     0.000     0.000     0.225     0.111   594.068   593.649     0.000     0.039     0.002     0.004     0.000     0.000   979.262  2000.220     0.000     0.000     0.000     0.188     0.000     1.026    97.134    -0.550     3.900    -5.000     1.221     3.093     0.000     0.000     1.061   818.626    0.8364    1.5703    1.9822    3.0705    0.3500    0.4399    0.4453    0.0004    0.0000    0.0035    0.0000
CORN    1 000010001    1    0   41.61900E-01     0.500     0.500     0.000     0.000     0.142     0.071   593.649   593.458     0.000     0.038     0.002     0.003     0.000     0.000   979.296  2000.220     0.000     0.000     0.000     0.187     0.000     0.840    98.833    -7.800    -5.000   -10.600    -3.698     2.143     0.000     0.000    -4.133   818.626    0.6514   -2.7591   -1.6828    1.0470    0.3498    0.4399    0.4451    0.0003    0.0000    0.0000    0.0000
CORN    1 000010001    1    0   42.61900E-01     0.300     0.300     0.000     0.000     0.000     0.000   593.458   593.315     0.000     0.037     0.002     0.000     0.000     0.000   979.331  2000.219     0.000     0.000     0.000     0.186     0.000     0.695    98.833   -11.950    -8.300   -15.600   -10.243     0.267     0.000     0.000   -10.990   818.626    0.5073   -8.6457   -6.8495   -2.3580    0.3498    0.4399    0.4451    0.0002    0.0000    0.0000    0.0000
CORN    1 000010001    1    0   43.61900E-01     0.000     0.000     0.000     0.000     0.789     0.394   593.315   592.778     0.000     0.036     0.002     0.016     0.000     0.000   979.349  2000.219     0.000     0.000     0.000     0.185     0.000     0.582    98.833   -10.000    -5.600   -14.400    -2.656     7.067     0.000     0.000    -2.884   818.626    0.3951   -2.1637   -1.5959   -0.1247    0.3486    0.4396    0.4451    0.0002    0.0000    0.0000    0.0000
CORN    1 000010001    1    0   44.61900E-01     0.000     0.000     0.000     0.000     0.528     0.264   592.778   592.028     0.000     0.035     0.002     0.011     0.000     0.000   979.371  2000.219     0.000     0.000     0.000     0.184     0.000     0.494    98.833   -12.250    -5.600   -18.900    -2.674     9.004     0.000     0.000    -2.903   818.626    0.3077   -2.1804   -1.6091   -0.1241    0.3478    0.4392    0.4451    0.0001    0.0000    0.0000    0.0000
CORN    1 000010001    1    0   45.61900E-01     0.000     0.000     0.000     0.000     0.326     0.163   592.028   590.237     0.000     0.033     0.002     0.007     0.000     0.000   979.396  2000.218     0.000     0.000     0.000     0.183     0.000     0.425    98.833   -13.350    -8.900   -17.800    -2.668     9.896     0.000     0.000    -2.895   818.626    0.2396   -2.1804   -1.6160   -0.1506    0.3404    0.4388    0.4451    0.0001    0.0000    0.0000    0.0000
CORN    1 000010001    1    0   46.61900E-01     0.800     0.800     0.000     0.000     0.000     0.000   590.237   587.924     0.000     0.032     0.002     0.000     0.000     0.000   979.427  2000.217     0.000     0.000     0.000     0.182     0.000     0.371    98.833    -9.400    -4.400   -14.400    -1.950     9.108     0.000     0.000    -2.132   818.626    0.1866   -1.5599   -1.1034    0.0991    0.3267    0.4388    0.4451    0.0001    0.0000    0.0000    0.0000
CORN    1 000010001    1    0   47.61900E-01     0.000     0.000     0.000     0.000     0.518     0.270   587.924   585.244     0.000     0.031     0.002     0.010     0.000     0.000   979.447  2000.217     0.000     0.000     0.000     0.181     0.000     0.329    98.833    -2.200     0.600    -5.000    -0.063     9.256     0.000     0.000    -0.126   818.626    0.1453    0.0840    0.2717    0.8245    0.3165    0.4307    0.4450    0.0001    0.0000    0.0000    0.0000
CORN    1 000010001    1    0   48.61900E-01     0.300     0.000     0.000     0.000     0.000     0.000   585.244   585.642     0.000     0.030     0.002     0.000     0.000     0.000   979.475  2000.216     0.000     0.000     0.000     0.180     0.000     0.296    98.833    -2.250    -0.600    -3.900    -0.302     7.012     0.000     0.000    -0.381   818.626    0.1132   -0.1171    0.1134    0.7741    0.3170    0.4352    0.4451    0.0000    0.0000    0.0000    0.0000
CORN    1 000010001    1    0   49.61900E-01     0.000     0.000     0.000     0.000     0.416     0.208   585.642   585.001     0.000     0.029     0.001     0.008     0.000     0.000   979.495  2000.215     0.000     0.000     0.000     0.179     0.000     0.319    96.767    -1.650     2.800    -6.100     0.134     9.716     0.000     0.000     0.079   850.642    0.1374    0.2642    0.4347    0.9515    0.3158    0.4355    0.4450    0.0000    0.0000    0.0000    0.0000
CORN    1 000010001    1    0   50.61900E-01     0.000     0.000     0.000     0.000     0.258     0.129   585.001   585.264     0.000     0.028     0.001     0.005     0.000     0.000   979.517  2000.215     0.000     0.000     0.000     0.178     0.000     0.287    98.833   -16.329    -7.284   -25.374    -1.935    13.742     0.000     0.000    -2.111   850.642    0.1070   -1.5353   -1.0669    0.1728    0.3172    0.4385    0.4450    0.0000    0.0000    0.0000    0.0000
CORN    1 000010001    1    0   51.61900E-01     0.000     0.000     0.927     0.000     1.456     0.748   585.264   583.691     0.000     0.028     0.001     0.029     0.000     0.000   979.514  2000.214     0.000     0.000     0.000     0.177     0.000     0.303    96.749    10.550    16.700     4.400     2.899     9.981     0.000     0.000     3.007   857.340    0.1240    2.6681    2.4389    1.9852    0.3076    0.4397    0.4451    0.0000    0.0000    0.0000    0.0000
CORN    1 000010001    1    0   52.61900E-01     0.000     0.000     0.000     0.000     2.063     1.039   583.691   585.617     0.000     0.027     0.001     0.041     0.000     0.000   979.498  2000.213     0.000     0.000     0.000     0.177     0.000     0.329    96.676    10.850    20.000     1.700     4.351    13.474     0.000     0.000     4.460   847.751    0.1498    4.0822    3.8124    3.3532    0.3213    0.4374    0.4448    0.0000    0.0000    0.0000    0.0000
CORN    1 000010001    1    0   53.61900E-01     0.000     0.000     0.000     0.000     1.035     0.510   585.617   588.220     0.000     0.026     0.001     0.021     0.000     0.000   979.502  2000.212     0.000     0.000     0.000     0.176     0.000     0.339    96.766     4.150    11.100    -2.800     4.300    10.535     0.000     0.000     4.391   854.455    0.1610    4.1199    3.9894    3.9410    0.3420    0.4362    0.4447    0.0000    0.0000    0.0000    0.0000
CORN    1 000010001    1    0   54.61900E-01     0.000     0.000     0.000     0.000     1.350     0.684   588.220   588.334     0.000     0.025     0.001     0.027     0.000     0.000   979.499  2000.211     0.000     0.000     0.000     0.175     0.000     0.339    96.883     1.700     5.600    -2.200     3.655     8.622     0.000     0.000     3.687   860.373    0.1623    3.6066    3.6331    4.0058    0.3401    0.4345    0.4447    0.0000    0.0000    0.0000    0.0000
CORN    1 000010001    1    0   55.61900E-01    24.900     0.000     0.000     0.000     0.109     0.054   588.334   598.752     0.321     0.034     0.002     0.002     0.000     0.000   979.529  2000.211    12.090    11.069     0.000     0.179     0.000    11.744    96.889     3.850     9.400    -1.700     3.738     2.674     1.097     0.061     3.773   719.113    0.4945    3.6907    3.7226    4.1255    0.3503    0.4400    0.4517    0.0001    0.0000    0.1768    0.4851
CORN    1 000010001    1    0   56.61900E-01    13.200     0.000     0.000     0.000     1.145     0.576   598.752   601.397     0.011     0.034     0.002     0.023     0.000     0.000   979.538  2000.211     7.346     7.661     0.000     0.184     0.000     9.164    97.321     1.700     5.600    -2.200     2.736     2.880     0.000     0.072     2.705   602.953    1.3174    2.8313    3.0255    3.8351    0.3502    0.4400    0.4571    0.0002    0.0000    0.1098    0.3323
CORN    1 000010001    1    0   57.61900E-01     2.300     0.000     0.000     0.000     0.201     0.099   601.397   600.418     0.116     0.036     0.002     0.004     0.000     0.000   979.569  2000.210     0.000     0.647     0.000     0.187     0.000     2.469    97.422    -2.500     0.000    -5.000     1.128     6.118     0.000     0.000     0.984   662.409    1.6329    1.4731    1.9509    3.2006    0.3503    0.4400    0.4546    0.0003    0.0000    0.0354    0.0281
CORN    1 000010001    1    0   58.61900E-01     0.000     0.000     0.000     0.000     0.974     0.480   600.418   598.514     0.000     0.035     0.002     0.019     0.000     0.000   979.583  2000.210     0.000     0.055     0.000     0.188     0.000     1.918    97.385    -2.200     0.600    -5.000     0.383     9.198     0.000     0.000     0.221   710.300    1.6726    0.7648    1.2728    2.6444    0.3501    0.4400    0.4522    0.0003    0.0000    0.0000    0.0024
CORN    1 000010001    1    0   59.61900E-01     0.000     0.000     0.000     0.000     1.957     0.985   598.514   596.131     0.000     0.034     0.002     0.039     0.000     0.000   979.576  2000.210     0.000     0.005     0.000     0.189     0.000     1.759    97.312     1.150     5.600    -3.300     0.592    11.177     0.000     0.000     0.458   751.576    1.5631    0.9109    1.3201    2.4785    0.3484    0.4400    0.4497    0.0003    0.0000    0.0000    0.0002
CORN    1 000010001    1    0   60.61900E-01     3.000     0.000     0.000     0.000     0.336     0.166   596.131   597.348     0.279     0.042     0.002     0.007     0.000     0.000   979.609  2000.210     0.000     0.000     0.000     0.190     0.000     1.656    97.218     9.150    17.200     1.100     4.414     3.508     0.000     0.000     4.516   756.601    1.4631    4.2183    4.0595    3.8505    0.3503    0.4400    0.4494    0.0002    0.0000    0.0353    0.0000
CORN    1 000010001    1    0   61.61900E-01     0.000     0.000     0.000     0.000     4.890     2.452   597.348   594.194     0.000     0.040     0.002     0.098     0.000     0.000   979.549  2000.210     0.000     0.000     0.000     0.190     0.000     1.518    97.266     5.300    10.600     0.000     4.628    15.106     0.000     0.000     4.655   778.685    1.3255    4.6048    4.5859    4.5782    0.3493    0.4399    0.4480    0.0002    0.0000    0.0000    0.0000
CORN    1 000010001    1    0   62.61900E-01    13.200     0.000     0.000     0.000     1.366     0.684   594.194   599.331     0.491     0.055     0.003     0.027     0.000     0.000   979.574  2000.210     4.160     3.808     0.000     0.194     0.000     5.561    97.139     1.950    10.600    -6.700     4.004     8.362     0.178     0.009     3.942   680.113    1.5574    4.1352    4.2875    4.6920    0.3502    0.4400    0.4537    0.0002    0.0000    0.1355    0.1633
CORN    1 000010001    1    0   63.61900E-01     0.000     0.000     0.000     0.000     2.020     1.024   599.331   596.629     0.000     0.053     0.003     0.040     0.000     0.000   979.584  2000.211     0.000     0.322     0.000     0.194     0.000     2.050    97.344    -3.050     0.000    -6.100     2.975    15.981     0.000     0.000     2.856   733.220    1.5317    3.2410    3.5556    4.3784    0.3482    0.4399    0.4508    0.0002    0.0000    0.0000    0.0138
CORN    1 000010001    1    0   64.61900E-01     4.100     0.000     0.000     0.000     0.540     0.266   596.629   598.332     0.300     0.061     0.003     0.011     0.000     0.000   979.631  2000.212     0.000     0.027     0.000     0.196     0.000     1.764    97.238    -1.400     0.000    -2.800     2.196    12.310     0.000     0.000     2.051   725.380    1.5386    2.5207    2.9123    3.9599    0.3503    0.4400    0.4513    0.0002    0.0000    0.0539    0.0012
CORN    1 000010001    1    0   65.61900E-01     0.000     0.000     0.000     0.000     1.548     0.777   598.332   596.296     0.000     0.059     0.003     0.031     0.000     0.000   979.656  2000.213     0.000     0.002     0.000     0.196     0.000     1.631    97.305    -0.800     0.600    -2.200     1.827    17.890     0.000     0.000     1.689   761.407    1.4302    2.1475    2.5454    3.6365    0.3495    0.4400    0.4491    0.0002    0.0000    0.0000    0.0001
CORN    1 000010001    1    0   66.61900E-01     0.000     0.000     0.000     0.000     2.449     1.235   596.296   594.120     0.000     0.057     0.003     0.049     0.000     0.000   979.661  2000.213     0.000     0.000     0.000     0.196     0.000     1.479    97.224     0.550     2.800    -1.700     1.670    14.637     0.000     0.000     1.537   786.595    1.2806    1.9762    2.3603    3.4292    0.3463    0.4399    0.4475    0.0002    0.0000    0.0000    0.0000
CORN    1 000010001    1    0   67.61900E-01     0.000     0.000     0.000     0.000     3.179     1.601   594.120   591.785     0.000     0.055     0.003     0.064     0.000     0.000   979.650  2000.214     0.000     0.000     0.000     0.196     0.000     1.320    97.136     2.750     7.200    -1.700     1.883    17.454     0.000     0.000     1.769   805.522    1.1225    2.1406    2.4703    3.4102    0.3417    0.4379    0.4462    0.0001    0.0000    0.0000    0.0000
CORN    1 000010001    1    0   68.61900E-01     0.000     0.000     0.000     0.000     3.992     2.025   591.785   589.167     0.000     0.053     0.003     0.080     0.000     0.000   979.621  2000.214     0.000     0.000     0.000     0.195     0.000     1.168    97.038    10.850    16.100     5.600     3.351    15.267     0.000     0.000     3.327   820.378    0.9708    3.4173    3.5339    3.9547    0.3361    0.4330    0.4451    0.0001    0.0000    0.0000    0.0000
CORN    1 000010001    1    0   69.61900E-01     0.000     0.000     0.000     0.000     4.066     2.056   589.167   586.624     0.000     0.052     0.003     0.081     0.000     0.000   979.589  2000.215     0.000     0.000     0.000     0.194     0.000     1.028    96.925    16.700    21.700    11.700     5.630    14.331     0.000     0.000     5.713   832.502    0.8320    5.4693    5.3243    5.0739    0.3306    0.4282    0.4447    0.0001    0.0000    0.0000    0.0000
CORN    1 000010001    1    0   70.61900E-01    15.500     0.000     0.000     0.000     1.347     0.684   586.624   598.515     0.400     0.063     0.003     0.027     0.000     0.000   979.622  2000.216     0.311     0.285     0.000     0.197     0.000     1.545    96.812    16.650    21.100    12.200    10.965     2.877     0.008     0.059    11.337   706.925    1.0617   10.2305    9.4491    7.6293    0.3502    0.4400    0.4523    0.0001    0.0000    0.1833    0.0123
CORN    1 000010001    1    0   71.61900E-01    18.000     0.000     0.000     0.000     1.977     0.991   598.515   600.491     0.136     0.065     0.003     0.040     0.000     0.000   979.644  2000.217    10.852     9.959     0.000     0.201     0.000    11.794    97.312    10.300    15.000     5.600    10.900     9.596     0.874     0.257    11.057   624.664    1.6311   10.5363   10.0814    8.8536    0.3501    0.4400    0.4563    0.0001    0.0000    0.1253    0.4302
CORN    1 000010001    1    0   72.61900E-01     0.000     0.000     0.000     0.000     2.404     1.215   600.491   597.090     0.000     0.063     0.003     0.048     0.000     0.000   979.656  2000.218     0.000     0.841     0.000     0.203     0.000     2.742    97.388     6.950    11.100     2.800    10.286    14.657     0.000     0.000    10.357   703.993    1.6956   10.1193    9.8956    9.2504    0.3469    0.4399    0.4525    0.0001    0.0000    0.0000    0.0363
CORN    1 000010001    1    0   73.61900E-01     6.300     0.000     0.000     0.000     1.627     0.817   597.090   599.369     0.375     0.073     0.004     0.033     0.000     0.000   979.693  2000.219     0.000     0.071     0.000     0.205     0.000     2.151    97.256    12.750    17.200     8.300    10.885     8.774     0.000     0.000    10.983   674.173    1.8724   10.6709   10.4151    9.7405    0.3502    0.4400    0.4540    0.0001    0.0000    0.0883    0.0031
CORN    1 000010001    1    0   74.61900E-01     2.300     0.000     0.000     0.000     0.397     0.195   599.369   599.104     0.164     0.076     0.004     0.008     0.000     0.000   979.757  2000.221     0.000     0.006     0.000     0.207     0.000     2.100    97.345    12.750    17.200     8.300    11.556     4.872     0.000     0.000    11.660   703.741    1.8844   11.3205   11.0391   10.3009    0.3503    0.4400    0.4525    0.0001    0.0000    0.0320    0.0003
CORN    1 000010001    1    0   75.61900E-01    27.700     0.000     0.000     0.000     1.080     0.545   599.104   601.239     0.040     0.075     0.004     0.022     0.000     0.000   979.806  2000.222    20.573    18.836     0.000     0.212     0.000    21.397    97.335    13.850    18.300     9.400    12.429     4.409     1.810     0.457    12.550   611.560    2.3478   12.1529   11.8233   10.9619    0.3502    0.4400    0.4568    0.0001    0.0000    0.1298    0.8050
CORN    1 000010001    1    0   76.61900E-01     0.000     0.000     0.000     0.000     3.572     1.805   601.239   597.133     0.000     0.072     0.004     0.071     0.000     0.000   979.804  2000.224     0.000     1.591     0.000     0.213     0.000     4.084    97.416    13.300    17.200     9.400    12.605    13.496     0.000     0.000    12.698   697.953    2.2779   12.3900   12.1231   11.3988    0.3472    0.4399    0.4528    0.0001    0.0000    0.0000    0.0680
CORN    1 000010001    1    0   77.61900E-01     0.000     0.000     0.000     0.000     3.734     1.877   597.133   593.748     0.000     0.070     0.004     0.075     0.000     0.000   979.796  2000.225     0.000     0.134     0.000     0.213     0.000     2.407    97.258     9.450    15.600     3.300    12.128    15.073     0.000     0.000    12.172   744.096    2.0575   12.0261   11.8878   11.4782    0.3417    0.4371    0.4502    0.0001    0.0000    0.0000    0.0057
CORN    1 000010001    1    0   78.61900E-01     0.000     0.000     0.000     0.000     2.557     1.283   593.748   591.376     0.000     0.068     0.003     0.051     0.000     0.000   979.809  2000.226     0.000     0.011     0.000     0.213     0.000     2.026    97.121     7.750    14.400     1.100    11.440    14.621     0.000     0.000    11.440   774.388    1.7993   11.4337   11.4105   11.3038    0.3381    0.4340    0.4482    0.0001    0.0000    0.0000    0.0005
CORN    1 000010001    1    0   79.61900E-01     0.000     0.000     0.000     0.000     2.864     1.440   591.376   589.114     0.000     0.066     0.003     0.057     0.000     0.000   979.814  2000.227     0.000     0.001     0.000     0.212     0.000     1.759    97.021     5.550    11.100     0.000    10.560    15.558     0.000     0.000    10.515   797.195    1.5440   10.6482   10.7374   10.9289    0.3343    0.4306    0.4465    0.0001    0.0000    0.0000    0.0000
CORN    1 000010001    1    0   80.61900E-01     0.000     0.000     0.000     0.000     2.282     1.143   589.114   587.344     0.000     0.064     0.003     0.046     0.000     0.000   979.829  2000.228     0.000     0.000     0.000     0.211     0.000     1.519    96.923     1.150     5.600    -3.300     9.145    15.540     0.000     0.000     9.029   816.699    1.3058    9.3770    9.6310   10.2443    0.3313    0.4280    0.4451    0.0001    0.0000    0.0000    0.0000
CORN    1 000010001    1    0   81.61900E-01     0.000     0.000     0.000     0.000     3.099     1.553   587.344   585.305     0.000     0.062     0.003     0.062     0.000     0.000   979.825  2000.229     0.000     0.000     0.000     0.210     0.000     1.305    96.844     0.550     6.700    -5.600     7.927    16.552     0.000     0.000     7.774   832.590    1.0928    8.2356    8.5865    9.4738    0.3274    0.4245    0.4446    0.0001    0.0000    0.0000    0.0000
CORN    1 000010001    1    0   82.61900E-01     0.000     0.000     0.000     0.000     2.951     1.465   585.305   583.418     0.000     0.060     0.003     0.059     0.000     0.000   979.823  2000.229     0.000     0.000     0.000     0.208     0.000     1.124    96.751     2.200     9.400    -5.000     7.142    16.654     0.000     0.000     6.982   841.255    0.9135    7.4634    7.8378    8.8123    0.3238    0.4212    0.4440    0.0000    0.0000    0.0000    0.0000
CORN    1 000010001    1    0   83.61900E-01     0.000     0.000     0.000     0.000     2.849     1.370   583.418   581.678     0.000     0.058     0.003     0.057     0.000     0.000   979.821  2000.230     0.000     0.000     0.000     0.206     0.000     0.972    96.663     9.450    16.700     2.200     7.556    15.128     0.000     0.000     7.465   848.770    0.7633    7.7424    7.9779    8.6409    0.3204    0.4181    0.4434    0.0000    0.0000    0.0000    0.0000
CORN    1 000010001    1    0   84.61900E-01     0.000     0.000     0.000     0.000     4.224     1.948   581.678   579.403     0.000     0.056     0.003     0.084     0.000     0.000   979.789  2000.230     0.000     0.000     0.000     0.205     0.000     0.845    96.580    13.600    17.200    10.000     8.700    12.824     0.000     0.000     8.695   855.360    0.6376    8.7188    8.7673    8.9683    0.3156    0.4136    0.4425    0.0000    0.0000    0.0000    0.0000
CORN    1 000010001    1    0   85.61900E-01    14.200     0.000     0.000     0.000     0.887     0.456   579.403   592.830     0.000     0.054     0.003     0.018     0.000     0.000   979.823  2000.231     0.000     0.000     0.000     0.203     0.000     0.742    96.468     9.700    19.400     0.000     9.044     6.528     0.000     0.000     9.034   857.721    0.5367    9.0668    9.1030    9.2308    0.3502    0.4400    0.4451    0.0000    0.0000    0.0811    0.0000
CORN    1 000010001    1    0   86.61900E-01     0.000     0.000     0.000     0.000     2.292     1.147   592.830   591.404     0.000     0.052     0.003     0.046     0.000     0.000   979.827  2000.231     0.000     0.000     0.000     0.202     0.000     0.656    97.083     0.850     2.800    -1.100     7.872    16.298     0.000     0.000     7.781   863.284    0.4515    8.0743    8.3048    8.8885    0.3486    0.4399    0.4451    0.0000    0.0000    0.0000    0.0000
CORN    1 000010001    1    0   87.61900E-01     0.000     0.000     0.000     0.000     3.380     1.700   591.404   589.452     0.000     0.051     0.003     0.068     0.000     0.000   979.808  2000.231     0.000     0.000     0.000     0.200     0.000     0.582    97.022     6.650    13.300     0.000     7.722    15.985     0.000     0.000     7.648   868.260    0.3796    7.8889    8.0954    8.6617    0.3435    0.4391    0.4451    0.0000    0.0000    0.0000    0.0000
CORN    1 000010001    1    0   88.61900E-01    12.400     0.000     0.000     0.000     2.787     1.398   589.452   596.138     0.472     0.064     0.003     0.056     0.000     0.000   979.813  2000.232     2.419     2.215     0.000     0.202     0.000     2.963    96.938    14.200    22.800     5.600     8.913    13.150     0.140     0.035     8.924   755.994    0.5431    8.8988    8.9076    9.0036    0.3501    0.4400    0.4495    0.0000    0.0000    0.1407    0.0936
CORN    1 000010001    1    0   89.61900E-01     0.000     0.000     0.000     0.000     2.192     1.107   596.138   594.044     0.000     0.062     0.003     0.044     0.000     0.000   979.828  2000.233     0.000     0.187     0.000     0.202     0.000     0.991    97.218     3.050     7.800    -1.700     8.282    20.865     0.000     0.000     8.226   782.744    0.5990    8.4046    8.5465    8.9161    0.3467    0.4395    0.4477    0.0000    0.0000    0.0000    0.0079
CORN    1 000010001    1    0   90.61900E-01     0.000     0.000     0.000     0.000     3.581     1.806   594.044   591.473     0.000     0.060     0.003     0.072     0.000     0.000   979.813  2000.234     0.000     0.016     0.000     0.202     0.000     0.817    97.133     5.000    11.100    -1.100     7.722    12.828     0.000     0.000     7.641   802.567    0.5977    7.8976    8.1056    8.6543    0.3415    0.4367    0.4464    0.0000    0.0000    0.0000    0.0007
CORN    1 000010001    1    0   91.61900E-01     3.800     0.000     0.000     0.000     0.875     0.431   591.473   594.229     0.000     0.058     0.003     0.017     0.000     0.000   979.851  2000.234     0.000     0.001     0.000     0.201     0.000     0.771    97.025    12.500    20.000     5.000     8.827     9.741     0.000     0.000     8.834   818.073    0.5663    8.8206    8.8374    8.9485    0.3494    0.4400    0.4453    0.0000    0.0000    0.0328    0.0001
CORN    1 000010001    1    0   92.61900E-01    11.700     0.000     0.000     0.000     1.159     0.571   594.229   598.345     0.183     0.062     0.003     0.023     0.000     0.000   979.887  2000.235     4.792     4.388     0.000     0.203     0.000     5.414    97.141    12.250    18.900     5.600     9.633     9.809     0.337     0.075     9.664   715.753    0.8214    9.5694    9.5081    9.3933    0.3503    0.4400    0.4519    0.0000    0.0000    0.1112    0.1858
CORN    1 000010001    1    0   93.61900E-01     1.300     0.000     0.000     0.000     1.530     0.768   598.345   597.228     0.117     0.064     0.003     0.031     0.000     0.000   979.917  2000.236     0.000     0.371     0.000     0.204     0.000     1.503    97.305     7.250    13.900     0.600     8.969     6.895     0.000     0.000     8.933   743.011    0.9266    9.0489    9.1362    9.3501    0.3502    0.4400    0.4503    0.0000    0.0000    0.0164    0.0157
CORN    1 000010001    1    0   94.61900E-01     1.500     0.000     0.000     0.000     0.322     0.158   597.228   597.158     0.154     0.067     0.003     0.006     0.000     0.000   979.974  2000.237     0.000     0.031     0.000     0.204     0.000     1.190    97.262     0.850     6.700    -5.000     6.466     6.205     0.000     0.000     6.286   762.022    0.9519    6.8581    7.2984    8.3816    0.3503    0.4400    0.4491    0.0001    0.0000    0.0175    0.0013
CORN    1 000010001    1    0   95.61900E-01     0.000     0.000     0.000     0.000     3.294     1.651   597.158   594.570     0.000     0.065     0.003     0.066     0.000     0.000   979.970  2000.238     0.000     0.003     0.000     0.204     0.000     1.116    97.259     4.750    12.800    -3.300     6.247    17.766     0.000     0.000     6.125   786.961    0.9072    6.5305    6.8833    7.8446    0.3492    0.4399    0.4475    0.0001    0.0000    0.0000    0.0001
CORN    1 000010001    1    0   96.61900E-01     0.000     0.000     0.000     0.000     2.378     1.191   594.570   592.647     0.000     0.063     0.003     0.048     0.000     0.000   979.982  2000.238     0.000     0.000     0.000     0.203     0.000     1.037    97.155     2.200    10.000    -5.600     5.801    19.795     0.000     0.000     5.671   805.808    0.8311    6.0923    6.4484    7.4176    0.3457    0.4388    0.4462    0.0001    0.0000    0.0000    0.0000
CORN    1 000010001    1    0   97.61900E-01     0.000     0.000     0.000     0.000     2.421     1.211   592.647   590.845     0.000     0.061     0.003     0.048     0.000     0.000   979.991  2000.239     0.000     0.000     0.000     0.202     0.000     0.948    97.075     0.300     5.000    -4.400     5.227    21.405     0.000     0.000     5.081   820.523    0.7436    5.5458    5.9326    6.9793    0.3422    0.4364    0.4452    0.0001    0.0000    0.0000    0.0000
CORN    1 000010001    1    0   98.61900E-01    25.900     0.000     0.000     0.000     2.022     1.011   590.845   598.881     0.496     0.074     0.004     0.040     0.000     0.000   980.021  2000.240    13.699    12.542     0.000     0.205     0.000    13.835    96.998    10.550    18.300     2.800     6.088    16.028     0.812     0.517     6.022   684.302    1.0858    6.2390    6.4469    7.0770    0.3502    0.4400    0.4535    0.0001    0.0000    0.1710    0.5326
CORN    1 000010001    1    0   99.61900E-01     2.800     0.000     0.000     0.000     0.993     0.489   598.881   598.791     0.204     0.079     0.004     0.020     0.000     0.000   980.076  2000.242     0.000     1.059     0.000     0.207     0.000     2.538    97.326     1.950     6.100    -2.200     5.277    10.720     0.000     0.000     5.153   704.360    1.2695    5.5556    5.8910    6.7878    0.3503    0.4400    0.4525    0.0001    0.0000    0.0381    0.0450
CORN    1 000010001    1    0  100.61900E-01     3.800     0.000     0.000     0.000     0.275     0.136   598.791   599.735     0.100     0.079     0.004     0.006     0.000     0.000   980.145  2000.243     0.025     0.113     0.000     0.209     0.000     1.817    97.323    -0.550     3.900    -5.000     3.478     6.064     0.001     0.008     3.270   685.020    1.4923    3.9472    4.5010    5.9417    0.3503    0.4400    0.4535    0.0001    0.0000    0.0626    0.0048
CORN    1 000010001    1    0  101.61900E-01     0.500     0.000     0.000     0.000     0.118     0.058   599.735   598.405     0.028     0.078     0.004     0.002     0.000     0.000   980.217  2000.245     0.000     0.010     0.000     0.210     0.000     1.716    97.359    -0.850     2.200    -3.900     1.390     2.726     0.000     0.000     1.115   729.397    1.4940    2.0172    2.7656    4.7236    0.3503    0.4400    0.4511    0.0001    0.0000    0.0074    0.0004
CORN    1 000010001    1    0  102.61900E-01     3.300     0.000     0.000     0.000     0.224     0.110   598.405   599.087     0.012     0.076     0.004     0.004     0.000     0.000   980.284  2000.246     0.332     0.305     0.000     0.212     0.000     2.097    97.308     6.650    12.200     1.100     3.972     3.005     0.009     0.002     3.926   706.968    1.5772    4.1047    4.3298    5.1018    0.3503    0.4400    0.4523    0.0001    0.0000    0.0535    0.0128
CORN    1 000010001    1    0  103.61900E-01    19.800     0.000     0.000     0.000     0.626     0.308   599.087   601.226     0.023     0.074     0.004     0.013     0.000     0.000   980.342  2000.247    13.227    12.136     0.000     0.216     0.000    14.399    97.334     5.000    11.700    -1.700     4.426     4.626     0.685     0.059     4.363   622.495    2.0448    4.5801    4.7891    5.4184    0.3503    0.4400    0.4564    0.0003    0.0000    0.1186    0.5091
CORN    1 000010001    1    0  104.61900E-01     0.000     0.000     0.000     0.000     3.879     1.939   601.226   597.079     0.000     0.071     0.004     0.078     0.000     0.000   980.332  2000.248     0.000     1.025     0.000     0.217     0.000     3.267    97.415     5.000     9.400     0.600     4.577    17.354     0.000     0.000     4.506   702.872    2.0222    4.7438    4.9615    5.5885    0.3482    0.4399    0.4525    0.0003    0.0000    0.0000    0.0430
CORN    1 000010001    1    0  105.61900E-01     0.000     0.000     0.000     0.000     3.737     1.869   597.079   593.746     0.000     0.069     0.003     0.075     0.000     0.000   980.323  2000.249     0.000     0.087     0.000     0.217     0.000     2.156    97.256     7.200    12.200     2.200     4.991    19.363     0.000     0.000     4.935   747.053    1.8492    5.1199    5.2927    5.8083    0.3427    0.4372    0.4500    0.0003    0.0000    0.0000    0.0036
CORN    1 000010001    1    0  106.61900E-01     0.000     0.000     0.000     0.000     5.157     2.594   593.746   590.089     0.000     0.067     0.003     0.103     0.000     0.000   980.284  2000.250     0.000     0.007     0.000     0.217     0.000     1.859    97.121    10.000    15.600     4.400     5.693    20.056     0.000     0.000     5.667   776.408    1.6319    5.7565    5.8528    6.1717    0.3354    0.4309    0.4480    0.0002    0.0000    0.0000    0.0003
CORN    1 000010001    1    0  107.61900E-01     0.000     0.000     0.000     0.000     5.975     2.993   590.089   586.302     0.000     0.065     0.003     0.119     0.000     0.000   980.226  2000.250     0.000     0.001     0.000     0.216     0.000     1.627    96.966    15.300    21.700     8.900     7.093    17.821     0.000     0.000     7.135   799.794    1.4080    7.0155    6.9530    6.8736    0.3276    0.4240    0.4458    0.0002    0.0000    0.0000    0.0000
CORN    1 000010001    1    0  108.61900E-01     0.000     0.000     0.000     0.000     4.978     2.445   586.302   583.310     0.000     0.063     0.003     0.100     0.000     0.000   980.186  2000.251     0.000     0.000     0.000     0.215     0.000     1.401    96.797    16.350    23.300     9.400     8.470    17.514     0.000     0.000     8.560   825.500    1.1841    8.2983    8.1219    7.7331    0.3215    0.4185    0.4441    0.0001    0.0000    0.0000    0.0000
CORN    1 000010001    1    0  109.61900E-01     0.000     0.000     0.000     0.000     5.748     2.640   583.310   580.207     0.000     0.061     0.003     0.115     0.000     0.000   980.129  2000.252     0.000     0.000     0.000     0.213     0.000     1.209    96.658    17.500    25.600     9.400     9.712    19.527     0.000     0.000     9.836   835.707    0.9931    9.4796    9.2272    8.6256    0.3149    0.4124    0.4429    0.0001    0.0000    0.0000    0.0000
CORN    1 000010001    1    0  110.61900E-01     0.000     0.000     0.000     0.000     6.867     2.925   580.207   576.880     0.000     0.059     0.003     0.137     0.000     0.000   980.047  2000.252     0.000     0.000     0.000     0.211     0.000     1.046    96.508    19.450    27.200    11.700    11.065    18.993     0.000     0.000    11.234   843.957    0.8320   10.7565   10.4165    9.5860    0.3075    0.4054    0.4415    0.0001    0.0000    0.0000    0.0000
CORN    1 000010001    1    0  111.61900E-01     0.000     0.000     0.000     0.000     3.960     1.551   576.880   574.975     0.000     0.057     0.003     0.079     0.000     0.000   980.022  2000.252     0.000     0.000     0.000     0.210     0.000     0.909    96.341    14.150    18.900     9.400    11.534    23.659     0.000     0.000    11.675   851.144    0.6965   11.2813   10.9928   10.2568    0.3035    0.4016    0.4407    0.0001    0.0000    0.0000    0.0000
CORN    1 000010001    1    0  112.61900E-01     0.000     0.000     0.000     0.000     4.928     1.827   574.975   572.834     0.000     0.055     0.003     0.099     0.000     0.000   979.976  2000.252     0.000     0.000     0.000     0.208     0.000     0.794    96.242    17.500    24.400    10.600    12.369    20.120     0.000     0.000    12.535   857.458    0.5830   12.0787   11.7532   10.9358    0.2987    0.3970    0.4398    0.0001    0.0000    0.0000    0.0000
CORN    1 000010001    1    0  113.61900E-01     2.500     0.000     0.000     0.000     0.915     0.322   572.834   574.732     0.000     0.053     0.003     0.018     0.000     0.000   980.009  2000.253     0.000     0.000     0.000     0.206     0.000     0.697    96.128    14.700    17.200    12.200    12.920     9.761     0.000     0.000    13.079   863.061    0.4878   12.6399   12.3228   11.5166    0.2979    0.3962    0.4439    0.0000    0.0000    0.0000    0.0000
CORN    1 000010001    1    0  114.61900E-01     1.000     0.000     0.000     0.000     0.382     0.135   574.732   575.344     0.000     0.052     0.003     0.008     0.000     0.000   980.050  2000.253     0.000     0.000     0.000     0.205     0.000     0.615    96.229    10.850    17.800     3.900    12.001     3.494     0.000     0.000    12.037   868.055    0.4081   11.9284   11.8243   11.5041    0.2976    0.3988    0.4450    0.0000    0.0000    0.0000    0.0000
CORN    1 000010001    1    0  115.61900E-01     0.000     0.000     0.000     0.000     3.068     1.120   575.344   573.995     0.000     0.050     0.003     0.061     0.000     0.000   980.036  2000.253     0.000     0.000     0.000     0.203     0.000     0.547    96.261    10.250    14.400     6.100    11.798    15.906     0.000     0.000    11.828   872.551    0.3412   11.7427   11.6726   11.4721    0.2947    0.3960    0.4444    0.0000    0.0000    0.0000    0.0000
CORN    1 000010001    1    0  116.61900E-01     0.000     0.000     0.000     0.000     6.559     2.303   573.995   571.484     0.000     0.049     0.002     0.131     0.000     0.000   979.951  2000.252     0.000     0.000     0.000     0.201     0.000     0.489    96.190    13.900    21.700     6.100    12.173    16.077     0.000     0.000    12.236   876.636    0.2851   12.0624   11.9409   11.6387    0.2890    0.3901    0.4431    0.0000    0.0000    0.0000    0.0000
CORN    1 000010001    1    0  117.61900E-01     0.000     0.000     0.000     0.000     5.449     1.841   571.484   569.453     0.000     0.047     0.002     0.109     0.000     0.000   979.887  2000.252     0.000     0.000     0.000     0.200     0.000     0.440    96.055    21.150    26.700    15.600    13.400    19.402     0.000     0.000    13.552   880.356    0.2378   13.1391   12.8628   12.2049    0.2844    0.3854    0.4420    0.0000    0.0000    0.0000    0.0000
CORN    1 000010001    1    0  118.61900E-01     0.000     0.000     0.000     0.000     3.999     1.308   569.453   567.971     0.000     0.046     0.002     0.080     0.000     0.000   979.850  2000.252     0.000     0.000     0.000     0.198     0.000     0.398    95.942    15.800    27.200     4.400    13.801    21.872     0.000     0.000    13.936   883.757    0.1979   13.5664   13.3052   12.6514    0.2812    0.3821    0.4412    0.0000    0.0000    0.0000    0.0000
CORN    1 000010001    1    0  119.61900E-01     2.500     0.000     0.000     0.000     1.095     0.345   567.971   569.965     0.000     0.044     0.002     0.022     0.000     0.000   979.870  2000.252     0.000     0.000     0.000     0.196     0.000     0.363    95.858     9.700    15.000     4.400    13.247    15.184     0.000     0.000    13.299   886.876    0.1641   13.1512   13.0298   12.6880    0.2804    0.3834    0.4449    0.0000    0.0000    0.0000    0.0000
CORN    1 000010001    1    0  120.61900E-01     0.500     0.000     0.000     0.000     0.894     0.282   569.965   570.034     0.000     0.043     0.002     0.018     0.000     0.000   979.893  2000.251     0.000     0.000     0.000     0.194     0.000     0.332    95.971    11.400    15.600     7.200    12.764     7.459     0.000     0.000    12.778   889.734    0.1355   12.7369   12.6948   12.5572    0.2797    0.3865    0.4449    0.0000    0.0000    0.0000    0.0000
CORN    1 000010001    1    0  121.61900E-01     0.000     0.000     0.000     0.000     4.406     1.423   570.034   568.473     0.000     0.041     0.002     0.088     0.000     0.000   979.844  2000.251     0.000     0.000     0.000     0.193     0.000     0.306    95.974     9.700    14.400     5.000    12.510    21.406     0.000     0.000    12.514   892.376    0.1111   12.5013   12.4855   12.4269    0.2764    0.3828    0.4440    0.0000    0.0000    0.0000    0.0000
CORN    1 000010001    1    0  122.61900E-01     9.400     0.000     0.000     0.000     2.315     0.887   568.473   576.858     0.000     0.040     0.002     0.046     0.000     0.000   979.836  2000.250     0.000     0.000     0.000     0.191     0.000     0.284    95.886    11.950    15.000     8.900    12.461    12.523     0.000     0.000    12.471   894.838    0.0902   12.4446   12.4240   12.3653    0.3054    0.4371    0.4446    0.0000    0.0000    0.0000    0.0000
CORN    1 000010001    1    0  123.61900E-01    22.600     0.000     0.000     0.000     3.114     1.566   576.858   595.151     1.592     0.089     0.004     0.062     0.000     0.000   979.858  2000.252     0.000     0.000     0.000     0.193     0.000     0.453    96.340    15.550    22.800     8.300    13.157    10.038     0.000     0.000    13.234   778.151    0.2576   13.0315   12.9065   12.6076    0.3500    0.4399    0.4480    0.0000    0.0000    0.2519    0.0000
CORN    1 000010001    1    0  124.61900E-01     0.300     0.000     0.000     0.000     1.027     0.505   595.151   594.143     0.000     0.086     0.004     0.021     0.000     0.000   979.920  2000.254     0.000     0.000     0.000     0.193     0.000     0.535    97.178     9.450    12.200     6.700    12.502    12.030     0.000     0.000    12.494   799.116    0.3391   12.5146   12.5168   12.4891    0.3488    0.4398    0.4467    0.0000    0.0000    0.0049    0.0000
CORN    1 000010001    1    0  125.61900E-01     0.000     0.000     0.000     0.000     4.373     2.190   594.143   591.312     0.000     0.084     0.004     0.087     0.000     0.000   979.912  2000.255     0.000     0.000     0.000     0.192     0.000     0.565    97.137    10.000    14.400     5.600    12.258    21.423     0.000     0.000    12.247   815.100    0.3704   12.2801   12.3023   12.3465    0.3423    0.4377    0.4455    0.0000    0.0000    0.0000    0.0000
CORN    1 000010001    1    0  126.61900E-01     1.000     0.000     0.000     0.000     0.772     0.380   591.312   591.408     0.000     0.081     0.004     0.015     0.000     0.000   979.974  2000.257     0.000     0.000     0.000     0.191     0.000     0.566    97.018     8.600    13.900     3.300    11.409     8.984     0.000     0.000    11.352   828.099    0.3717   11.5282   11.6569   11.9632    0.3488    0.4391    0.4451    0.0000    0.0000    0.0000    0.0000
CORN    1 000010001    1    0  127.61900E-01     0.500     0.000     0.000     0.000     0.918     0.452   591.408   591.007     0.000     0.078     0.004     0.018     0.000     0.000   980.030  2000.258     0.000     0.000     0.000     0.190     0.000     0.550    97.022     7.750    16.100    -0.600    10.710    11.342     0.000     0.000    10.633   837.610    0.3574   10.8698   11.0522   11.5160    0.3490    0.4389    0.4451    0.0000    0.0000    0.0047    0.0000
CORN    1 000010001    1    0  128.61900E-01     0.000     0.000     0.000     0.000     4.001     2.000   591.007   588.616     0.000     0.076     0.004     0.080     0.000     0.000   980.022  2000.259     0.000     0.000     0.000     0.189     0.000     0.526    97.005    13.900    20.600     7.200    11.119    24.003     0.000     0.000    11.097   845.587    0.3346   11.1688   11.2393   11.4554    0.3430    0.4340    0.4450    0.0000    0.0000    0.0000    0.0000
CORN    1 000010001    1    0  129.61900E-01     0.000     0.000     0.000     0.000     6.399     3.215   588.616   585.056     0.000     0.074     0.004     0.128     0.000     0.000   979.964  2000.260     0.000     0.000     0.000     0.188     0.000     0.498    96.901    14.150    23.900     4.400    11.554    20.680     0.000     0.000    11.559   852.556    0.3073   11.5479   11.5499   11.5826    0.3339    0.4264    0.4444    0.0000    0.0000    0.0000    0.0000
CORN    1 000010001    1    0  130.61900E-01     0.000     0.000     0.000     0.000     3.914     1.960   585.056   582.789     0.000     0.071     0.004     0.078     0.000     0.000   979.953  2000.261     0.000     0.000     0.000     0.187     0.000     0.468    96.740    12.500    18.900     6.100    11.759    23.623     0.000     0.000    11.768   858.710    0.2783   11.7443   11.7307   11.7084    0.3289    0.4220    0.4436    0.0000    0.0000    0.0000    0.0000
CORN    1 000010001    1    0  131.61900E-01     5.800     0.000     0.000     0.000     2.675     1.336   582.789   586.979     0.000     0.069     0.003     0.053     0.000     0.000   979.965  2000.262     0.000     0.000     0.000     0.185     0.000     0.437    96.633    10.800    12.200     9.400    11.668    14.525     0.000     0.000    11.661   864.172    0.2493   11.6797   11.6926   11.7253    0.3463    0.4367    0.4448    0.0000    0.0000    0.0183    0.0000
CORN    1 000010001    1    0  132.61900E-01    18.500     0.000     0.000     0.000     2.769     1.363   586.979   597.026     0.827     0.093     0.005     0.055     0.000     0.000   979.998  2000.264     4.458     4.082     0.000     0.189     0.000     4.791    96.828    16.650    21.100    12.200    12.298    24.898     0.114     0.245    12.340   731.603    0.5184   12.2240   12.1470   11.9689    0.3502    0.4400    0.4509    0.0000    0.0000    0.1915    0.1764
CORN    1 000010001    1    0  133.61900E-01     0.000     0.000     0.000     0.000     6.287     3.146   597.026   592.677     0.000     0.090     0.005     0.126     0.000     0.000   979.958  2000.266     0.000     0.345     0.000     0.189     0.000     1.161    97.254    19.150    23.300    15.000    13.067    25.686     0.000     0.000    13.131   765.583    0.6241   12.9272   12.7691   12.3771    0.3407    0.4388    0.4488    0.0000    0.0000    0.0000    0.0149
CORN    1 000010001    1    0  134.61900E-01    17.800     0.000     0.000     0.000     1.720     0.847   592.677   599.814     0.651     0.108     0.005     0.034     0.000     0.000   980.026  2000.268     5.921     5.450     0.000     0.193     0.000     6.765    97.076    17.500    25.000    10.000    13.834    14.614     0.286     0.117    13.926   657.100    1.1188   13.6423   13.4227   12.8637    0.3502    0.4400    0.4549    0.0000    0.0000    0.1633    0.2351
SOYB    1 000010001    1    0  135.61900E-01     5.800     0.000     0.000     0.000     2.175     1.087   599.814   600.018     0.174     0.110     0.005     0.043     0.000     0.000   980.087  2000.271     0.711     1.111     0.000     0.197     0.000     2.902    97.362    12.750    18.300     7.200    13.422     4.531     0.000     0.028    13.452   640.051    1.5913   13.3489   13.2480   12.9487    0.3502    0.4400    0.4556    0.0001    0.0000    0.0504    0.0366
SOYB    1 000010001    1    0  136.61900E-01     0.000     0.000     0.000     0.000     3.235     1.642   600.018   596.327     0.000     0.106     0.005     0.065     0.000     0.000   980.123  2000.274     0.000     0.094     0.000     0.198     0.000     1.931    97.370     6.650    10.000     3.300    12.695    21.819     0.000     0.000    12.682   711.399    1.6360   12.7192   12.7329   12.7266    0.3456    0.4400    0.4521    0.0001    0.0000    0.0000    0.0031
SOYB    1 000010001    1    0  137.61900E-01     0.000     0.000     0.000     0.000     2.993     1.548   596.327   593.392     0.000     0.103     0.005     0.060     0.000     0.000   980.161  2000.276     0.000     0.008     0.000     0.199     0.000     1.742    97.226     5.550    11.700    -0.600    11.977    23.214     0.000     0.000    11.936   752.279    1.5326   12.0642   12.1559   12.3633    0.3414    0.4373    0.4497    0.0001    0.0000    0.0000    0.0003
SOYB    1 000010001    1    0  138.61900E-01     0.000     0.000     0.000     0.000     4.777     2.454   593.392   589.918     0.000     0.100     0.005     0.096     0.000     0.000   980.161  2000.278     0.000     0.001     0.000     0.198     0.000     1.578    97.106    11.100    17.200     5.000    11.935    21.897     0.000     0.000    11.913   779.941    1.3764   11.9811   12.0371   12.1840    0.3349    0.4315    0.4477    0.0001    0.0000    0.0000    0.0000
SOYB    1 000010001    1    0  139.61900E-01     4.300     0.000     0.000     0.000     0.836     0.438   589.918   593.014     0.000     0.097     0.005     0.017     0.000     0.000   980.236  2000.280     0.000     0.000     0.000     0.198     0.000     1.404    96.958    11.350    14.400     8.300    11.787     6.809     0.000     0.000    11.762   802.524    1.2033   11.8367   11.8948   12.0447    0.3491    0.4392    0.4464    0.0001    0.0000    0.0123    0.0000
SOYB    1 000010001    1    0  140.61900E-01     0.000     0.000     0.000     0.000     3.656     1.830   593.014   590.567     0.000     0.094     0.005     0.073     0.000     0.000   980.252  2000.282     0.000     0.000     0.000     0.197     0.000     1.238    97.090    11.100    18.300     3.900    11.781    20.678     0.000     0.000    11.765   817.795    1.0384   11.8141   11.8560   11.9710    0.3437    0.4352    0.4454    0.0001    0.0000    0.0000    0.0000
SOYB    1 000010001    1    0  141.61900E-01     0.000     0.000     0.000     0.000     6.801     3.356   590.567   586.704     0.000     0.091     0.005     0.136     0.000     0.000   980.202  2000.284     0.000     0.000     0.000     0.196     0.000     1.088    96.986    15.300    20.000    10.600    12.248    23.804     0.000     0.000    12.267   830.069    0.8886   12.2116   12.1771   12.1079    0.3342    0.4272    0.4447    0.0001    0.0000    0.0000    0.0000
SOYB    1 000010001    1    0  142.61900E-01     3.600     0.000     0.000     0.000     1.939     0.960   586.704   588.906     0.000     0.088     0.004     0.039     0.000     0.000   980.246  2000.285     0.000     0.000     0.000     0.195     0.000     0.956    96.815    16.150    20.600    11.700    12.946    14.622     0.000     0.000    13.005   839.079    0.7578   12.8363   12.7173   12.4314    0.3474    0.4376    0.4449    0.0001    0.0000    0.0014    0.0000
SOYB    1 000010001    1    0  143.61900E-01     0.500     0.000     0.000     0.000     2.179     1.078   588.906   587.945     0.000     0.085     0.004     0.044     0.000     0.000   980.283  2000.287     0.000     0.000     0.000     0.194     0.000     0.841    96.914    12.200    18.300     6.100    12.800     8.578     0.000     0.000    12.824   846.863    0.6446   12.7548   12.6960   12.5279    0.3458    0.4373    0.4449    0.0001    0.0000    0.0000    0.0000
SOYB    1 000010001    1    0  144.61900E-01     0.000     0.000     0.000     0.000     4.113     2.050   587.945   585.558     0.000     0.082     0.004     0.082     0.000     0.000   980.279  2000.288     0.000     0.000     0.000     0.192     0.000     0.743    96.871    14.450    22.200     6.700    13.098    21.113     0.000     0.000    13.142   853.668    0.5473   13.0180   12.9265   12.6881    0.3399    0.4324    0.4442    0.0000    0.0000    0.0000    0.0000
SOYB    1 000010001    1    0  145.61900E-01     0.000     0.000     0.000     0.000     7.426     3.533   585.558   581.724     0.000     0.080     0.004     0.149     0.000     0.000   980.206  2000.289     0.000     0.000     0.000     0.191     0.000     0.658    96.763    16.950    23.900    10.000    13.635    23.238     0.000     0.000    13.710   859.675    0.4640   13.5035   13.3546   12.9737    0.3299    0.4238    0.4427    0.0000    0.0000    0.0000    0.0000
SOYB    1 000010001    1    0  146.61900E-01     0.000     0.000     0.000     0.000     4.826     2.113   581.724   579.341     0.000     0.077     0.004     0.097     0.000     0.000   980.183  2000.290     0.000     0.000     0.000     0.190     0.000     0.586    96.582    20.300    26.700    13.900    14.565    19.989     0.000     0.000    14.693   865.023    0.3930   14.3419   14.0938   13.4666    0.3240    0.4186    0.4418    0.0000    0.0000    0.0000    0.0000
SOYB    1 000010001    1    0  147.61900E-01     0.000     0.000     0.000     0.000     7.671     3.203   579.341   575.895     0.000     0.075     0.004     0.153     0.000     0.000   980.101  2000.291     0.000     0.000     0.000     0.188     0.000     0.524    96.465    22.800    27.800    17.800    15.604    21.981     0.000     0.000    15.777   869.818    0.3323   15.3021   14.9639   14.1023    0.3152    0.4106    0.4403    0.0000    0.0000    0.0000    0.0000
SOYB    1 000010001    1    0  148.61900E-01     0.000     0.000     0.000     0.000     9.883     3.795   575.895   571.879     0.000     0.072     0.004     0.198     0.000     0.000   979.972  2000.292     0.000     0.000     0.000     0.187     0.000     0.470    96.290    21.400    26.700    16.100    16.338    23.877     0.000     0.000    16.524   874.144    0.2806   16.0133   15.6456   14.6943    0.3048    0.4009    0.4384    0.0000    0.0000    0.0000    0.0000
SOYB    1 000010001    1    0  149.61900E-01     0.000     0.000     0.000     0.000    10.128     3.604   571.879   568.073     0.000     0.070     0.004     0.203     0.000     0.000   979.836  2000.292     0.000     0.000     0.000     0.185     0.000     0.425    96.076    23.900    30.000    17.800    17.209    25.809     0.000     0.000    17.428   878.070    0.2365   16.8301   16.4068   15.3217    0.2951    0.3917    0.4365    0.0000    0.0000    0.0000    0.0000
SOYB    1 000010001    1    0  150.61900E-01     0.000     0.000     0.000     0.000     5.922     2.024   568.073   565.865     0.000     0.068     0.003     0.118     0.000     0.000   979.782  2000.293     0.000     0.000     0.000     0.184     0.000     0.386    95.864    23.300    28.300    18.300    17.977    23.741     0.000     0.000    18.217   881.648    0.1988   17.5643   17.1059   15.9330    0.2899    0.3866    0.4354    0.0000    0.0000    0.0000    0.0000
SOYB    1 000010001    1    0  151.61900E-01    22.100     0.000     0.000     0.000     2.287     1.170   565.865   586.625     0.000     0.066     0.003     0.046     0.000     0.000   979.798  2000.293     0.000     0.000     0.000     0.183     0.000     0.352    95.736    22.200    29.400    15.000    18.671    15.960     0.000     0.000    18.927   884.924    0.1665   18.2344   17.7516   16.5156    0.3468    0.4372    0.4449    0.0000    0.0000    0.0022    0.0000
SOYB    1 000010001    1    0  152.61900E-01     0.000     0.000     0.000     0.000     6.178     3.130   586.625   583.339     0.000     0.064     0.003     0.124     0.000     0.000   979.735  2000.293     0.000     0.000     0.000     0.181     0.000     0.323    96.812    21.950    28.900    15.000    19.187    21.239     0.000     0.000    19.402   887.936    0.1388   18.8010   18.3343   17.0659    0.3377    0.4298    0.4439    0.0000    0.0000    0.0000    0.0000
SOYB    1 000010001    1    0  153.61900E-01     0.000     0.000     0.000     0.000     8.197     3.992   583.339   579.203     0.000     0.062     0.003     0.164     0.000     0.000   979.630  2000.293     0.000     0.000     0.000     0.180     0.000     0.298    96.659    24.150    30.000    18.300    19.801    26.545     0.000     0.000    20.029   890.713    0.1149   19.3938   18.9078   17.5951    0.3266    0.4205    0.4423    0.0000    0.0000    0.0000    0.0000
SOYB    1 000010001    1    0  154.61900E-01     0.000     0.000     0.000     0.000     8.410     3.695   579.203   575.374     0.000     0.060     0.003     0.168     0.000     0.000   979.518  2000.293     0.000     0.000     0.000     0.178     0.000     0.276    96.458    23.600    30.000    17.200    20.308    24.691     0.000     0.000    20.542   893.283    0.0944   19.8914   19.3985   18.0734    0.3163    0.4116    0.4406    0.0000    0.0000    0.0000    0.0000
SOYB    1 000010001    1    0  155.61900E-01     0.000     0.000     0.000     0.000     7.863     3.205   575.374   572.044     0.000     0.058     0.003     0.157     0.000     0.000   979.415  2000.293     0.000     0.000     0.000     0.177     0.000     0.256    96.263    23.050    28.300    17.800    20.703    25.571     0.000     0.000    20.939   895.667    0.0766   20.2854   19.7959   18.4852    0.3074    0.4037    0.4391    0.0000    0.0000    0.0000    0.0000
SOYB    1 000010001    1    0  156.61900E-01     0.000     0.000     0.000     0.000     8.356     3.207   572.044   568.720     0.000     0.056     0.003     0.167     0.000     0.000   979.301  2000.293     0.000     0.000     0.000     0.175     0.000     0.240    96.085    23.050    28.900    17.200    21.051    26.006     0.000     0.000    21.289   897.886    0.0611   20.6311   20.1440   18.8476    0.2986    0.3959    0.4376    0.0000    0.0000    0.0000    0.0000
SOYB    1 000010001    1    0  157.61900E-01     7.400     0.000     0.000     0.000     2.292     0.924   568.720   575.088     0.000     0.054     0.003     0.046     0.000     0.000   979.307  2000.293     0.000     0.000     0.000     0.174     0.000     0.225    95.901    20.300    23.900    16.700    20.903    11.001     0.000     0.000    21.106   899.955    0.0476   20.5465   20.1283   18.9997    0.2962    0.4242    0.4447    0.0000    0.0000    0.0000    0.0000
SOYB    1 000010001    1    0  158.61900E-01     5.600     0.000     0.000     0.000     2.120     1.012   575.088   579.568     0.000     0.052     0.003     0.042     0.000     0.000   979.314  2000.293     0.000     0.000     0.000     0.173     0.000     0.213    96.248    20.550    25.000    16.100    20.828    10.760     0.000     0.000    21.018   901.888    0.0371   20.4963   20.1147   19.0849    0.3303    0.4373    0.4447    0.0000    0.0000    0.0000    0.0000
SOYB    1 000010001    1    0  159.61900E-01     0.000     0.000     0.000     0.000     6.644     2.941   579.568   576.521     0.000     0.051     0.003     0.133     0.000     0.000   979.229  2000.292     0.000     0.000     0.000     0.171     0.000     0.203    96.477    20.300    28.900    11.700    20.889    26.226     0.000     0.000    21.081   903.801    0.0289   20.5668   20.2017   19.1907    0.3212    0.4292    0.4434    0.0000    0.0000    0.0000    0.0000
SOYB    1 000010001    1    0  160.61900E-01     0.000     0.000     0.000     0.000     4.604     2.014   576.521   574.401     0.000     0.049     0.002     0.092     0.000     0.000   979.184  2000.292     0.000     0.000     0.000     0.170     0.000     0.195    96.322    14.150    20.000     8.300    20.373    27.200     0.000     0.000    20.512   905.696    0.0225   20.1380   19.8623   19.0705    0.3150    0.4239    0.4424    0.0000    0.0000    0.0000    0.0000
SOYB    1 000010001    1    0  161.61900E-01     0.000     0.000     0.000     0.000     5.564     2.296   574.401   572.001     0.000     0.048     0.002     0.111     0.000     0.000   979.118  2000.291     0.000     0.000     0.000     0.168     0.000     0.189    96.212    14.450    22.200     6.700    19.913    26.999     0.000     0.000    20.026   907.574    0.0175   19.7231   19.5009   18.8593    0.3080    0.4176    0.4413    0.0000    0.0000    0.0000    0.0000
SOYB    1 000010001    1    0  162.61900E-01     0.000     0.000     0.000     0.000     6.053     2.392   572.001   569.505     0.000     0.046     0.002     0.121     0.000     0.000   979.041  2000.291     0.000     0.000     0.000     0.167     0.000     0.184    96.083    19.450    25.000    13.900    20.008    30.358     0.000     0.000    20.153   909.434    0.0136   19.7712   19.5119   18.8055    0.3004    0.4111    0.4402    0.0000    0.0000    0.0000    0.0000
SOYB    1 000010001    1    0  163.61900E-01     0.000     0.000     0.000     0.000     6.887     2.492   569.505   566.911     0.000     0.045     0.002     0.138     0.000     0.000   978.945  2000.290     0.000     0.000     0.000     0.166     0.000     0.179    95.945    22.750    26.100    19.400    20.393    27.151     0.000     0.000    20.579   911.277    0.0106   20.0906   19.7708   18.9273    0.2927    0.4040    0.4388    0.0000    0.0000    0.0000    0.0000
SOYB    1 000010001    1    0  164.61900E-01     0.000     0.000     0.000     0.000     6.961     2.609   566.911   564.200     0.000     0.043     0.002     0.139     0.000     0.000   978.847  2000.289     0.000     0.000     0.000     0.164     0.000     0.176    95.797    27.500    32.800    22.200    21.194    27.852     0.000     0.000    21.449   913.102    0.0083   20.7854   20.3638   19.2821    0.2840    0.3969    0.4375    0.0000    0.0000    0.0000    0.0000
SOYB    1 000010001    1    0  165.61900E-01     0.000     0.000     0.000     0.000     7.026     2.440   564.200   561.659     0.000     0.042     0.002     0.141     0.000     0.000   978.746  2000.288     0.000     0.000     0.000     0.163     0.000     0.172    95.637    19.450    28.900    10.000    21.149    27.445     0.000     0.000    21.365   914.910    0.0064   20.7973   20.4240   19.4371    0.2762    0.3901    0.4362    0.0000    0.0000    0.0000    0.0000
SOYB    1 000010001    1    0  166.61900E-01     0.000     0.000     0.000     0.000     5.183     1.801   561.659   559.759     0.000     0.040     0.002     0.104     0.000     0.000   978.681  2000.287     0.000     0.000     0.000     0.162     0.000     0.170    95.483    21.700    27.800    15.600    21.314    26.442     0.000     0.000    21.541   916.701    0.0050   20.9480   20.5668   19.5755    0.2703    0.3852    0.4352    0.0000    0.0000    0.0000    0.0000
[...]
CORN    1 000010001    1    0  324.61900E-01     0.300     0.000     0.000     0.000     0.875     0.384   567.454   567.316     0.000     0.000     0.000     0.017     0.000     0.000   909.091  2000.030     0.000     0.000     0.000     0.059     0.000     0.059    95.828     5.550    12.200    -1.100     6.349     3.198     0.000     0.000     6.134   991.196    0.0000    6.6684    6.9815    7.8197    0.3432    0.4341    0.4447    0.0000    0.0000    0.0000    0.0000
CORN    1 000010001    1    0  325.61900E-01    10.800     0.000     0.000     0.000     0.138     0.074   567.316   577.988     0.000     0.000     0.000     0.003     0.000     0.000   909.089  2000.030     0.000     0.000     0.000     0.059     0.000     0.059    95.820     5.000     7.800     2.200     5.864     3.622     0.000     0.000     5.639   991.206    0.0000    6.1976    6.5261    7.4120    0.3501    0.4399    0.4451    0.0000    0.0000    0.0000    0.0000
CORN    1 000010001    1    0  326.61900E-01     0.000     0.000     0.000     0.000     1.372     0.741   577.988   577.194     0.000     0.000     0.000     0.027     0.000     0.000   909.061  2000.029     0.000     0.000     0.000     0.058     0.000     0.059    96.397     6.350     9.400     3.300     5.969     8.131     0.000     0.000     5.867   991.217    0.0000    6.1821    6.4535    7.2165    0.3479    0.4388    0.4451    0.0000    0.0000    0.0000    0.0000
CORN    1 000010001    1    0  327.61900E-01     0.000     0.000     0.000     0.000     1.016     0.549   577.194   576.592     0.000     0.000     0.000     0.020     0.000     0.000   909.041  2000.029     0.000     0.000     0.000     0.058     0.000     0.059    96.357     3.900     7.800     0.000     5.435     7.208     0.000     0.000     5.304   991.227    0.0000    5.6996    6.0230    6.9003    0.3462    0.4377    0.4451    0.0000    0.0000    0.0000    0.0000
CORN    1 000010001    1    0  328.61900E-01     0.000     0.000     0.000     0.000     1.712     0.938   576.592   575.601     0.000     0.000     0.000     0.034     0.000     0.000   909.007  2000.029     0.000     0.000     0.000     0.058     0.000     0.059    96.326     4.150    10.000    -1.700     5.142     8.123     0.000     0.000     5.012   991.238    0.0000    5.4035    5.7276    6.6175    0.3435    0.4355    0.4451    0.0000    0.0000    0.0000    0.0000
CORN    1 000010001    1    0  329.61900E-01     0.000     0.000     0.000     0.000     1.128     0.610   575.601   574.938     0.000     0.000     0.000     0.023     0.000     0.000   908.984  2000.028     0.000     0.000     0.000     0.058     0.000     0.058    96.275    -1.100     2.200    -4.400     3.746     9.286     0.000     0.000     3.535   991.249    0.0000    4.1589    4.6475    5.9300    0.3418    0.4340    0.4451    0.0000    0.0000    0.0000    0.0000
CORN    1 000010001    1    0  330.61900E-01     4.000     0.000     0.000     0.000     0.116     0.063   574.938   578.822     0.000     0.000     0.000     0.002     0.000     0.000   908.982  2000.028     0.000     0.000     0.000     0.058     0.000     0.058    96.240     0.250     4.400    -3.900     2.614     5.338     0.000     0.000     2.374   991.259    0.0000    3.0843    3.6487    5.1493    0.3501    0.4400    0.4451    0.0000    0.0000    0.0000    0.0000
CORN    1 000010001    1    0  331.61900E-01     0.000     0.000     0.000     0.000     2.487     1.358   578.822   577.411     0.000     0.000     0.000     0.050     0.000     0.000   908.933  2000.027     0.000     0.000     0.000     0.058     0.000     0.058    96.439     1.150     5.600    -3.300     2.183     6.112     0.000     0.000     1.996   991.269    0.0000    2.6059    3.1330    4.5822    0.3460    0.4399    0.4451    0.0000    0.0000    0.0000    0.0000
CORN    1 000010001    1    0  332.61900E-01     0.000     0.000     0.000     0.000     0.859     0.464   577.411   576.893     0.000     0.000     0.000     0.017     0.000     0.000   908.915  2000.027     0.000     0.000     0.000     0.058     0.000     0.058    96.368    -5.250    -1.100    -9.400     0.442     8.798     0.000     0.000     0.171   991.280    0.0000    1.0337    1.7403    3.6154    0.3447    0.4392    0.4451    0.0000    0.0000    0.0000    0.0000
CORN    1 000010001    1    0  333.61900E-01     0.000     0.000     0.000     0.000     1.164     0.629   576.893   576.212     0.000     0.000     0.000     0.023     0.000     0.000   908.892  2000.027     0.000     0.000     0.000     0.058     0.000     0.058    98.833    -6.400    -2.800   -10.000    -1.315     7.759     0.000     0.000    -1.636   991.280    0.0000   -0.6186    0.2176    2.4450    0.3429    0.4380    0.4451    0.0000    0.0000    0.0000    0.0000
CORN    1 000010001    1    0  334.61900E-01     0.000     0.000     0.000     0.000     2.160     1.180   576.212   574.978     0.000     0.000     0.000     0.043     0.000     0.000   908.849  2000.026     0.000     0.000     0.000     0.058     0.000     0.058    98.833    -1.400     4.400    -7.200    -1.275     8.526     0.000     0.000    -1.533   991.280    0.0000   -0.7184   -0.0355    1.8669    0.3396    0.4354    0.4451    0.0000    0.0000    0.0000    0.0000
CORN    1 000010001    1    0  335.61900E-01     4.200     0.000     0.000     0.000     0.421     0.227   574.978   578.898     0.000     0.000     0.000     0.008     0.000     0.000   908.841  2000.026     0.000     0.000     0.000     0.058     0.000     0.058    96.242     6.150    11.700     0.600     1.817     4.036     0.000     0.000     1.782   991.311    0.0000    1.9096    2.0763    2.7252    0.3499    0.4400    0.4451    0.0000    0.0000    0.0000    0.0000
CORN    1 000010001    1    0  336.61900E-01     0.200     0.000     0.000     0.000     0.232     0.125   578.898   579.326     0.000     0.000     0.000     0.005     0.000     0.000   908.836  2000.026     0.000     0.000     0.000     0.058     0.000     0.058    96.443     6.650     9.400     3.900     3.286     6.655     0.000     0.000     3.309   991.249    0.0000    3.2608    3.3153    3.6094    0.3501    0.4400    0.4451    0.0000    0.0000    0.0000    0.0000
CORN    1 000010001    1    0  337.61900E-01     0.000     0.000     0.000     0.000     1.263     0.683   579.326   579.489     0.000     0.000     0.000     0.025     0.000     0.000   908.811  2000.025     0.000     0.000     0.000     0.058     0.000     0.058    96.465     5.250     9.400     1.100     4.155     3.776     0.000     0.000     4.169   991.131    0.0000    4.1590    4.1876    4.3453    0.3496    0.4400    0.4451    0.0000    0.0000    0.0000    0.0000
CORN    1 000010001    1    0  338.61900E-01     0.000     0.000     0.000     0.000     1.123     0.623   579.489   578.813     0.000     0.000     0.000     0.022     0.000     0.000   908.788  2000.025     0.000     0.000     0.000     0.058     0.000     0.058    96.473     3.300     7.200    -0.600     3.909     5.445     0.000     0.000     3.857   991.141    0.0000    4.0268    4.1734    4.5874    0.3480    0.4400    0.4451    0.0000    0.0000    0.0000    0.0000
CORN    1 000010001    1    0  339.61900E-01     1.500     0.000     0.000     0.000     0.135     0.073   578.813   580.186     0.000     0.000     0.000     0.003     0.000     0.000   908.786  2000.025     0.000     0.000     0.000     0.058     0.000     0.058    96.439     1.900     4.400    -0.600     3.321     6.226     0.000     0.000     3.226   991.152    0.0000    3.5337    3.7902    4.4828    0.3503    0.4400    0.4451    0.0000    0.0000    0.0000    0.0000
CORN    1 000010001    1    0  340.61900E-01     0.000     0.000     0.000     0.000     1.024     0.553   580.186   579.579     0.000     0.000     0.000     0.020     0.000     0.000   908.765  2000.024     0.000     0.000     0.000     0.058     0.000     0.058    96.507    -0.550     2.200    -3.300     2.316     7.704     0.000     0.000     2.175   991.163    0.0000    2.6392    3.0270    4.0598    0.3501    0.4400    0.4451    0.0000    0.0000    0.0000    0.0000
CORN    1 000010001    1    0  341.61900E-01     0.000     0.000     0.000     0.000     0.538     0.291   579.579   579.234     0.000     0.000     0.000     0.011     0.000     0.000   908.755  2000.024     0.000     0.000     0.000     0.058     0.000     0.058    96.477     0.550     4.400    -3.300     1.698     4.602     0.000     0.000     1.546   991.173    0.0000    2.0454    2.4718    3.6323    0.3495    0.4400    0.4451    0.0000    0.0000    0.0000    0.0000
CORN    1 000010001    1    0  342.61900E-01     0.000     0.000     0.000     0.000     0.995     0.538   579.234   578.643     0.000     0.000     0.000     0.020     0.000     0.000   908.735  2000.023     0.000     0.000     0.000     0.057     0.000     0.058    96.460     5.550    10.000     1.100     3.344     3.871     0.000     0.000     3.315   991.184    0.0000    3.4261    3.5674    4.0638    0.3482    0.4400    0.4451    0.0000    0.0000    0.0000    0.0000
CORN    1 000010001    1    0  343.61900E-01     8.100     0.000     0.000     0.000     0.071     0.038   578.643   585.486     0.260     0.008     0.000     0.001     0.000     0.000   908.741  2000.023     0.738     0.675     0.000     0.061     0.000     0.737    96.430     9.200    12.800     5.600     6.740     1.968     0.045     0.033     6.880   990.114    0.0000    6.4473    6.1580    5.5659    0.3503    0.4400    0.4451    0.0000    0.0000    0.0000    0.0078
CORN    1 000010001    1    0  344.61900E-01     0.000     0.000     0.000     0.000     0.784     0.424   585.486   585.003     0.000     0.008     0.000     0.016     0.000     0.000   908.733  2000.023     0.000     0.057     0.000     0.061     0.000     0.118    96.760     6.950    13.900     0.000     6.844     6.579     0.000     0.000     6.888   990.126    0.0000    6.7429    6.6214    6.3173    0.3502    0.4400    0.4451    0.0000    0.0000    0.0000    0.0007
CORN    1 000010001    1    0  345.61900E-01     0.300     0.000     0.000     0.000     0.137     0.074   585.003   585.169     0.000     0.008     0.000     0.003     0.000     0.000   908.738  2000.023     0.000     0.005     0.000     0.061     0.000     0.066    96.737     0.550     2.200    -1.100     3.442     2.251     0.000     0.000     3.252   990.137    0.0000    3.8573    4.3080    5.3832    0.3503    0.4400    0.4451    0.0000    0.0000    0.0000    0.0001
CORN    1 000010001    1    0  346.61900E-01     0.000     0.000     0.000     0.000     0.744     0.402   585.169   584.707     0.000     0.008     0.000     0.015     0.000     0.000   908.730  2000.023     0.000     0.000     0.000     0.061     0.000     0.062    96.745    -1.650     1.100    -4.400     1.896     6.330     0.000     0.000     1.690   990.149    0.0000    2.3637    2.9205    4.3778    0.3498    0.4400    0.4451    0.0000    0.0000    0.0000    0.0000
CORN    1 000010001    1    0  347.61900E-01     0.000     0.000     0.000     0.000     1.254     0.677   584.707   583.970     0.000     0.007     0.000     0.025     0.000     0.000   908.712  2000.023     0.000     0.000     0.000     0.061     0.000     0.061    96.724     0.550     7.800    -6.700     1.517     6.276     0.000     0.000     1.343   990.161    0.0000    1.9166    2.4139    3.7791    0.3485    0.4400    0.4451    0.0000    0.0000    0.0000    0.0000
CORN    1 000010001    1    0  348.61900E-01     0.000     0.000     0.000     0.000     0.907     0.490   583.970   583.420     0.000     0.007     0.000     0.018     0.000     0.000   908.701  2000.023     0.000     0.000     0.000     0.061     0.000     0.061    96.689    -0.550     5.000    -6.100     0.933     6.304     0.000     0.000     0.749   990.173    0.0000    1.3501    1.8638    3.2703    0.3471    0.4400    0.4451    0.0000    0.0000    0.0000    0.0000
CORN    1 000010001    1    0  349.61900E-01     0.000     0.000     0.000     0.000     1.918     1.048   583.420   582.313     0.000     0.007     0.000     0.038     0.000     0.000   908.669  2000.023     0.000     0.000     0.000     0.061     0.000     0.061    96.663     1.350     8.300    -5.600     1.109     6.397     0.000     0.000     0.962   990.185    0.0000    1.4441    1.8710    3.0791    0.3440    0.4393    0.4451    0.0000    0.0000    0.0000    0.0000
CORN    1 000010001    1    0  350.61900E-01     0.000     0.000     0.000     0.000     1.385     0.764   582.313   581.489     0.000     0.007     0.000     0.028     0.000     0.000   908.648  2000.023     0.000     0.000     0.000     0.061     0.000     0.061    96.611     5.000    12.200    -2.200     2.615     4.645     0.000     0.000     2.567   990.197    0.0000    2.7362    2.9232    3.5428    0.3418    0.4380    0.4451    0.0000    0.0000    0.0000    0.0000
CORN    1 000010001    1    0  351.61900E-01     6.100     0.000     0.000     0.000     0.000     0.000   581.489   587.018     0.451     0.021     0.001     0.000     0.000     0.000   908.667  2000.024     0.000     0.000     0.000     0.062     0.000     0.062    96.571     6.950    11.100     2.800     5.607     1.192     0.000     0.000     5.711   973.514    0.0000    5.4006    5.2129    4.8844    0.3503    0.4400    0.4451    0.0000    0.0000    0.0000    0.0000
CORN    1 000010001    1    0  352.61900E-01     0.300     0.000     0.000     0.000     0.246     0.133   587.018   587.107     0.000     0.020     0.001     0.005     0.000     0.000   908.681  2000.025     0.000     0.000     0.000     0.062     0.000     0.063    96.830     4.700     9.400     0.000     5.219     3.147     0.000     0.000     5.207   969.530    0.0000    5.2448    5.2737    5.3607    0.3503    0.4400    0.4451    0.0000    0.0000    0.0000    0.0000
CORN    1 000010001    1    0  353.61900E-01     0.000     0.000     0.000     0.000     0.862     0.465   587.107   586.570     0.000     0.019     0.001     0.017     0.000     0.000   908.683  2000.025     0.000     0.000     0.000     0.063     0.000     0.063    96.834    -1.400     2.200    -5.000     3.135     5.958     0.000     0.000     2.985   970.810    0.0000    3.4687    3.8465    4.7929    0.3501    0.4400    0.4451    0.0000    0.0000    0.0000    0.0000
CORN    1 000010001    1    0  354.61900E-01     0.000     0.000     0.000     0.000     0.348     0.188   586.570   586.312     0.000     0.019     0.001     0.007     0.000     0.000   908.694  2000.026     0.000     0.000     0.000     0.063     0.000     0.063    96.809    -1.650     1.100    -4.400     1.774     6.863     0.000     0.000     1.587   972.078    0.0000    2.1957    2.6985    4.0234    0.3497    0.4400    0.4451    0.0000    0.0000    0.0000    0.0000
CORN    1 000010001    1    0  355.61900E-01     0.000     0.000     0.000     0.000     0.740     0.400   586.312   585.842     0.000     0.018     0.001     0.015     0.000     0.000   908.696  2000.026     0.000     0.000     0.000     0.063     0.000     0.063    96.798     1.700     6.700    -3.300     1.787     6.085     0.000     0.000     1.646   973.334    0.0000    2.1128    2.5252    3.6789    0.3489    0.4400    0.4451    0.0000    0.0000    0.0000    0.0000
CORN    1 000010001    1    0  356.61900E-01     0.600     0.000     0.000     0.000     0.145     0.079   585.842   586.294     0.000     0.018     0.001     0.003     0.000     0.000   908.710  2000.027     0.000     0.000     0.000     0.063     0.000     0.063    96.776     5.250     8.300     2.200     2.918     6.089     0.000     0.000     2.859   974.578    0.0000    3.0660    3.2789    3.9480    0.3501    0.4400    0.4451    0.0000    0.0000    0.0000    0.0000
CORN    1 000010001    1    0  357.61900E-01     4.700     0.000     0.000     0.000     0.062     0.034   586.294   590.631     0.146     0.022     0.001     0.001     0.000     0.000   908.729  2000.028     0.000     0.000     0.000     0.066     0.000     0.066    96.797     6.100     7.800     4.400     4.557     2.708     0.000     0.000     4.572   908.047    0.0000    4.5350    4.5469    4.6918    0.3503    0.4400    0.4451    0.0000    0.0000    0.0000    0.0000
CORN    1 000010001    1    0  358.61900E-01     0.000     0.000     0.000     0.000     1.953     1.067   590.631   589.461     0.000     0.021     0.001     0.039     0.000     0.000   908.710  2000.028     0.000     0.000     0.000     0.066     0.000     0.067    96.989     6.400     7.800     5.000     5.104     7.342     0.000     0.000     5.104   909.902    0.0000    5.1095    5.1316    5.2457    0.3500    0.4400    0.4451    0.0000    0.0000    0.0000    0.0000
CORN    1 000010001    1    0  359.61900E-01     0.600     0.000     0.000     0.000     0.092     0.050   589.461   589.909     0.000     0.020     0.001     0.002     0.000     0.000   908.728  2000.029     0.000     0.000     0.000     0.067     0.000     0.067    96.938     9.450    11.700     7.200     7.173     3.040     0.000     0.000     7.270   911.744    0.0000    6.9678    6.7573    6.3027    0.3502    0.4400    0.4451    0.0000    0.0000    0.0000    0.0000
CORN    1 000010001    1    0  360.61900E-01     4.100     0.000     0.000     0.000     0.043     0.023   589.909   593.453     0.126     0.024     0.001     0.001     0.000     0.000   908.750  2000.030     0.000     0.000     0.000     0.070     0.000     0.115    96.958    11.350    14.400     8.300     9.562     1.967     0.000     0.000     9.735   853.913    0.0450    9.1839    8.7606    7.7359    0.3503    0.4400    0.4451    0.0000    0.0000    0.0188    0.0000
CORN    1 000010001    1    0  361.61900E-01     0.300     0.000     0.000     0.000     0.039     0.021   593.453   593.393     0.005     0.023     0.001     0.001     0.000     0.000   908.771  2000.031     0.000     0.000     0.000     0.071     0.000     0.150    97.109     6.650    12.200     1.100     7.693     1.509     0.000     0.000     7.667   855.151    0.0784    7.7393    7.7592    7.7282    0.3503    0.4400    0.4451    0.0000    0.0000    0.0015    0.0000
CORN    1 000010001    1    0  362.61900E-01     6.200     0.000     0.000     0.000     0.704     0.381   593.393   596.336     0.004     0.023     0.001     0.014     0.000     0.000   908.778  2000.031     1.766     1.617     0.000     0.075     0.000     1.941    97.106     5.300     8.900     1.700     6.951     6.271     0.085     0.005     6.901   778.164    0.2484    7.0613    7.1845    7.4833    0.3503    0.4400    0.4481    0.0001    0.0000    0.0243    0.0203
CORN    1 000010001    1    0  363.61900E-01     0.000     0.000     0.000     0.000     0.867     0.468   596.336   595.064     0.000     0.022     0.001     0.017     0.000     0.000   908.781  2000.032     0.000     0.137     0.000     0.078     0.000     0.547    97.226     3.350     6.100     0.600     5.831     6.092     0.000     0.000     5.729   798.935    0.3324    6.0579    6.3202    6.9870    0.3497    0.4400    0.4467    0.0001    0.0000    0.0000    0.0017
CORN    1 000010001    1    0  364.61900E-01     0.300     0.000     0.000     0.000     0.860     0.464   595.064   594.257     0.000     0.021     0.001     0.017     0.000     0.000   908.784  2000.033     0.000     0.012     0.000     0.079     0.000     0.457    97.175     1.100     2.200     0.000     3.534     2.778     0.000     0.000     3.324   814.958    0.3654    4.0009    4.5389    5.9059    0.3494    0.4400    0.4456    0.0001    0.0000    0.0013    0.0001
CORN    1 000010001    1    0  365.61900E-01     1.100     0.000     0.000     0.000     0.000     0.000   594.257   594.743     0.087     0.023     0.001     0.000     0.000     0.000   908.806  2000.034     0.000     0.001     0.000     0.081     0.000     0.450    97.142     1.950     3.900     0.000     2.395     0.605     0.000     0.000     2.184   827.770    0.3683    2.8698    3.4433    4.9717    0.3503    0.4400    0.4451    0.0001    0.0000    0.0021    0.0000
