1
    SWAT Jan 13 2025   VER kalcic-nifafrozen                                                             0/ 0/   0      0: 0: 0

    General Input/Output section (file.cio):                                        
    8/10/2023 12:00:00 AM ARCGIS-SWAT interface AV                                  
                                                                                    


LULC  HRU       GIS  SUB  MGT  MON   AREAkm2  PRECIPmm SNOFALLmm SNOMELTmm     IRRmm     PETmm      ETmm SW_INITmm  SW_ENDmm    PERCmm GW_RCHGmm DA_RCHGmm   REVAPmm  SA_IRRmm  DA_IRRmm   SA_STmm   DA_STmm SURQGENmm SURQCNTmm   TLOSSmm LATQGENmm    GW_Qmm    WYLDmm   DAILYCN TMP_AVdgC  TMP_MXdC  TMP_MNdC SOL_TMPdC SOLRMJ/m2  SYLDt/ha  USLEt/ha SUR_TMPdC  wattblmm   QTILEmm SOLTMP3dc SOLTMP4dc SOLTMP5dc   VWC10cm   VWC20cm   VWC50cm Tno3kg/ha Sno3kg/ha    TPg/ha   SPg/ha  prQTILEmm  DQTILEmm midtilewt
CORN    1 000010001    1    0    1.61900E-01     0.000     0.000     0.000     0.000     1.057     0.529   451.768   451.179     0.000     0.019     0.001     0.021     0.000     0.000   949.440  2000.027     0.000     0.274     0.000     0.081     0.000     0.355    96.696    -3.050    -1.100    -5.000     1.947     7.654     0.000     0.000     1.634   189.017    0.0000    2.5481    3.2233    5.0969    0.3312    0.4170    0.4530    0.0000    0.0000    0.0000    0.0173   17.6198   17.6198  189.0172
CORN    1 000010001    1    0    2.61900E-01     0.000     0.000     0.000     0.000     0.948     0.477   451.179   450.641     0.000     0.019     0.001     0.019     0.000     0.000   949.439  2000.028     0.000     0.068     0.000     0.080     0.000     0.149    96.674    -3.050     0.000    -6.100     0.708     7.975     0.000     0.000     0.377   190.838    0.0000    1.3408    2.0627    4.1008    0.3295    0.4170    0.4529    0.0000    0.0000    0.0000    0.0043   17.5399   17.5399  190.8378
CORN    1 000010001    1    0    3.61900E-01     0.000     0.000     0.000     0.000     1.175     0.588   450.641   449.993     0.000     0.018     0.001     0.024     0.000     0.000   949.432  2000.028     0.000     0.017     0.000     0.080     0.000     0.097    96.654    -1.100     2.200    -4.400     0.243     6.505     0.000     0.000    -0.057   192.499    0.0000    0.8175    1.4852    3.4120    0.3272    0.4170    0.4529    0.0000    0.0000    0.0000    0.0011   17.4671   17.4671  192.4987
CORN    1 000010001    1    0    4.61900E-01     0.300     0.300     0.000     0.000     0.107     0.053   449.993   449.880     0.000     0.017     0.001     0.002     0.000     0.000   949.447  2000.029     0.000     0.004     0.000     0.079     0.000     0.084    98.833    -3.050    -1.100    -5.000    -0.597     7.074     0.000     0.000    -0.921   192.499    0.0000    0.0143    0.7158    2.7214    0.3270    0.4170    0.4529    0.0000    0.0000    0.0000    0.0003    0.0000    0.0000  900.0000
CORN    1 000010001    1    0    5.61900E-01     0.000     0.000     0.000     0.000     0.094     0.046   449.880   449.774     0.000     0.017     0.001     0.002     0.000     0.000   949.461  2000.029     0.000     0.001     0.000     0.079     0.000     0.080    98.833    -6.700    -1.700   -11.700    -2.239     4.679     0.000     0.000    -2.641   192.499    0.0000   -1.4908   -0.6462    1.7288    0.3268    0.4170    0.4529    0.0000    0.0000    0.0000    0.0001    0.0000    0.0000  900.0000
CORN    1 000010001    1    0    6.61900E-01     0.000     0.000     0.000     0.000     0.695     0.340   449.774   449.374     0.000     0.016     0.001     0.014     0.000     0.000   949.462  2000.030     0.000     0.000     0.000     0.079     0.000     0.079    98.833    -5.850    -0.600   -11.100    -2.022     4.527     0.000     0.000    -2.356   192.499    0.0000   -1.3990   -0.7008    1.3004    0.3253    0.4169    0.4529    0.0000    0.0000    0.0000    0.0000    0.0000    0.0000  900.0000
CORN    1 000010001    1    0    7.61900E-01     0.000     0.000     0.000     0.000     0.363     0.178   449.374   449.136     0.000     0.016     0.001     0.007     0.000     0.000   949.470  2000.030     0.000     0.000     0.000     0.078     0.000     0.079    98.833    -1.150     4.400    -6.700    -0.258     4.977     0.000     0.000    -0.435   192.499    0.0000    0.0765    0.4724    1.6836    0.3245    0.4168    0.4529    0.0000    0.0000    0.0000    0.0000    0.0000    0.0000  900.0000
CORN    1 000010001    1    0    8.61900E-01     0.500     0.500     0.800     0.000     0.449     0.220   449.136   449.656     0.000     0.015     0.001     0.009     0.000     0.000   949.475  2000.030     0.000     0.000     0.000     0.078     0.000     0.078    96.596     2.500     8.300    -3.300     1.138     4.163     0.000     0.000     1.060   194.678    0.0000    1.2935    1.5104    2.2847    0.3309    0.4170    0.4530    0.0000    0.0000    0.0000    0.0000   17.3719   17.3719  194.6782
CORN    1 000010001    1    0    9.61900E-01    10.200     0.000     0.000     0.000     0.529     0.277   449.656   453.090     0.270     0.023     0.001     0.011     0.000     0.000   949.487  2000.031     0.724     0.544     0.000     0.081     0.000     3.148    96.616     5.000     8.300     1.700     4.254     0.550     0.021     0.066     4.400   166.073    2.5234    4.0125    3.8332    3.6433    0.3336    0.4171    0.4530    0.0026    0.0000    0.1277    0.0337   18.6421   16.1186  166.0726
CORN    1 000010001    1    0   10.61900E-01    23.900     0.000     0.000     0.000     0.567     0.278   453.090   453.089     0.014     0.023     0.001     0.011     0.000     0.000   949.498  2000.032    15.854    12.038     0.000     0.086     0.000    16.932    96.745     3.850     9.400    -1.700     4.027     2.141     0.744     0.184     4.066   155.137    4.8075    3.9822    4.0328    4.2009    0.3337    0.4171    0.4530    0.0045    0.0000    0.1276    0.7448   19.1393   14.3319  155.1373
CORN    1 000010001    1    0   11.61900E-01     1.500     1.500     0.000     0.000     0.000     0.000   453.089   453.029     0.000     0.022     0.001     0.000     0.000     0.000   949.519  2000.033     0.000     3.000     0.000     0.085     0.000     3.086    98.833    -8.350    -1.100   -15.600    -1.179     3.655     0.000     0.000    -1.587   155.137    0.0000   -0.3934    0.4372    2.5836    0.3337    0.4171    0.4530    0.0000    0.0000    0.0000    0.1856    0.0000    0.0000  900.0000
CORN    1 000010001    1    0   12.61900E-01     2.500     2.500     0.000     0.000     0.419     0.209   453.029   452.759     0.000     0.022     0.001     0.008     0.000     0.000   949.531  2000.033     0.000     0.748     0.000     0.084     0.000     0.833    98.833    -8.650    -1.700   -15.600    -3.369     0.948     0.000     0.000    -7.971   155.137    0.0000   -2.5324   -1.5908    1.0264    0.3336    0.4171    0.4530    0.0000    0.0000    0.0000    0.0463    0.0000    0.0000  900.0000
CORN    1 000010001    1    0   13.61900E-01     1.000     1.000     0.000     0.000     0.000     0.000   452.759   452.698     0.000     0.021     0.001     0.000     0.000     0.000   949.551  2000.034     0.000     0.186     0.000     0.084     0.000     0.271    98.833   -12.500    -5.600   -19.400    -2.535     5.823     0.000     0.000   -10.669   155.137    0.0000   -1.9308   -1.2546    0.6434    0.3336    0.4171    0.4530    0.0000    0.0000    0.0000    0.0115    0.0000    0.0000  900.0000
CORN    1 000010001    1    0   14.61900E-01     0.500     0.500     0.000     0.000     0.347     0.174   452.698   452.464     0.000     0.020     0.001     0.007     0.000     0.000   949.563  2000.035     0.000     0.046     0.000     0.083     0.000     0.130    98.833   -11.650    -3.900   -19.400    -2.118     7.205     0.000     0.000   -10.523   155.137    0.0000   -1.6088   -1.0375    0.5688    0.3335    0.4171    0.4530    0.0000    0.0000    0.0000    0.0029    0.0000    0.0000  900.0000
CORN    1 000010001    1    0   15.61900E-01     0.000     0.000     0.000     0.000     1.428     0.733   452.464   452.384     0.000     0.020     0.001     0.029     0.000     0.000   949.553  2000.035     0.000     0.012     0.000     0.083     0.000     0.095    98.833     1.100     6.100    -3.900    -0.035     8.984     0.000     0.000    -3.710   155.137    0.0000    0.1773    0.4378    1.2505    0.3334    0.4171    0.4530    0.0000    0.0000    0.0000    0.0007    0.0000    0.0000  900.0000
CORN    1 000010001    1    0   16.61900E-01     5.800     5.800     0.000     0.000     0.213     0.107   452.384   452.324     0.000     0.019     0.001     0.004     0.000     0.000   949.567  2000.036     0.000     0.003     0.000     0.082     0.000     0.086    96.719     2.500     6.100    -1.100     1.412     4.716     0.000     0.000     0.648   187.113    0.0000    1.4694    1.5760    2.0308    0.3334    0.4171    0.4530    0.0000    0.0000    0.0000    0.0002   17.7035   17.7035  187.1135
CORN    1 000010001    1    0   17.61900E-01     0.000     0.000     0.000     0.000     0.222     0.111   452.324   452.153     0.000     0.018     0.001     0.004     0.000     0.000   949.580  2000.036     0.000     0.001     0.000     0.082     0.000     0.083    96.717    -3.100    -0.600    -5.600     1.070     7.230     0.000     0.000    -3.507   187.300    0.0000    1.2266    1.4460    2.2249    0.3333    0.4171    0.4530    0.0000    0.0000    0.0000    0.0000   17.6953   17.6953  187.2999
CORN    1 000010001    1    0   18.61900E-01     0.000     0.000     0.000     0.000     0.332     0.166   452.153   451.926     0.000     0.018     0.001     0.007     0.000     0.000   949.590  2000.037     0.000     0.000     0.000     0.082     0.000     0.082    96.711   -11.400    -5.000   -17.800     0.160     6.499     0.000     0.000    -8.949   187.829    0.0000    0.4560    0.8232    1.9877    0.3331    0.4171    0.4530    0.0000    0.0000    0.0000    0.0000   17.6720   17.6720  187.8295
CORN    1 000010001    1    0   19.61900E-01     0.000     0.000     0.000     0.000     0.635     0.318   451.926   451.832     0.000     0.017     0.001     0.013     0.000     0.000   949.594  2000.037     0.000     0.000     0.000     0.081     0.000     0.082    98.833   -14.200   -10.600   -17.800    -0.547     3.592     0.000     0.000   -12.378   187.829    0.0000   -0.1682    0.2816    1.6434    0.3325    0.4171    0.4530    0.0000    0.0000    0.0000    0.0000    0.0000    0.0000  900.0000
CORN    1 000010001    1    0   20.61900E-01     0.000     0.000     0.000     0.000     0.026     0.013   451.832   451.758     0.000     0.017     0.001     0.001     0.000     0.000   949.610  2000.038     0.000     0.000     0.000     0.081     0.000     0.081    98.833   -12.500    -7.800   -17.200    -0.501     6.060     0.000     0.000   -11.536   187.829    0.0000   -0.1458    0.2751    1.5249    0.3325    0.4171    0.4530    0.0000    0.0000    0.0000    0.0000    0.0000    0.0000  900.0000
CORN    1 000010001    1    0   21.61900E-01     0.800     0.800     0.000     0.000     0.000     0.000   451.758   451.698     0.000     0.016     0.001     0.000     0.000     0.000   949.625  2000.038     0.000     0.000     0.000     0.080     0.000     0.081    98.833   -11.400    -7.200   -15.600    -0.387     5.007     0.000     0.000   -10.613   187.829    0.0000   -0.0578    0.3353    1.5080    0.3325    0.4171    0.4530    0.0000    0.0000    0.0000    0.0000    0.0000    0.0000  900.0000
CORN    1 000010001    1    0   22.61900E-01     0.000     0.000     0.000     0.000     0.000     0.000   451.698   451.638     0.000     0.016     0.001     0.000     0.000     0.000   949.640  2000.038     0.000     0.000     0.000     0.080     0.000     0.080    98.833    -8.900    -3.900   -13.900    -0.018     6.817     0.000     0.000    -9.098   187.829    0.0000    0.2600    0.5990    1.6293    0.3325    0.4171    0.4530    0.0000    0.0000    0.0000    0.0000    0.0000    0.0000  900.0000
CORN    1 000010001    1    0   23.61900E-01     0.000     0.000     0.000     0.000     0.637     0.318   451.638   451.259     0.000     0.015     0.001     0.013     0.000     0.000   949.641  2000.039     0.000     0.000     0.000     0.080     0.000     0.080    96.691    -5.550    -3.900    -7.200     0.424     7.513     0.000     0.000    -6.948   189.420    0.0000    0.6530    0.9446    1.8417    0.3317    0.4171    0.4530    0.0000    0.0000    0.0000    0.0000   17.6021   17.6021  189.4197
CORN    1 000010001    1    0   24.61900E-01     0.000     0.000     0.000     0.000     0.686     0.343   451.259   450.856     0.000     0.015     0.001     0.014     0.000     0.000   949.642  2000.039     0.000     0.000     0.000     0.079     0.000     0.080    96.677    -6.950    -2.800   -11.100     0.534     6.334     0.000     0.000    -7.011   190.589    0.0000    0.7696    1.0713    1.9783    0.3307    0.4171    0.4530    0.0000    0.0000    0.0000    0.0000   17.5508   17.5508  190.5889
CORN    1 000010001    1    0   25.61900E-01     0.000     0.000     0.000     0.000     0.428     0.214   450.856   450.582     0.000     0.014     0.001     0.009     0.000     0.000   949.647  2000.039     0.000     0.000     0.000     0.079     0.000     0.079    96.662    -4.150     1.100    -9.400     0.915     6.489     0.000     0.000    -5.218   191.835    0.0000    1.1121    1.3758    2.1853    0.3300    0.4171    0.4530    0.0000    0.0000    0.0000    0.0000   17.4962   17.4962  191.8351
CORN    1 000010001    1    0   26.61900E-01     0.000     0.000     0.000     0.000     0.033     0.016   450.582   450.522     0.000     0.014     0.001     0.001     0.000     0.000   949.659  2000.039     0.000     0.000     0.000     0.078     0.000     0.079    96.651     1.650     7.200    -3.900     1.772     6.086     0.000     0.000    -0.956   192.682    0.0000    1.8732    2.0422    2.6029    0.3300    0.4171    0.4530    0.0000    0.0000    0.0000    0.0000   17.4591   17.4591  192.6819
CORN    1 000010001    1    0   27.61900E-01     0.000     0.000     0.000     0.000     0.126     0.063   450.522   451.132     0.000     0.013     0.001     0.003     0.000     0.000   949.669  2000.040     0.000     0.000     0.000     0.078     0.000     0.079    96.649    -3.050     0.600    -6.700     1.670     4.356     0.000     0.000    -2.982   190.602    0.0000    1.8283    2.0645    2.7669    0.3334    0.4171    0.4530    0.0000    0.0000    0.0000    0.0000   17.5502   17.5502  190.6017
CORN    1 000010001    1    0   28.61900E-01     0.000     0.000     0.000     0.000     0.455     0.227   451.132   450.844     0.000     0.013     0.001     0.009     0.000     0.000   949.672  2000.040     0.000     0.000     0.000     0.078     0.000     0.078    96.672    -4.200    -1.700    -6.700     1.726     6.759     0.000     0.000    -4.292   190.983    0.0000    1.9263    2.1674    2.8933    0.3326    0.4171    0.4530    0.0000    0.0000    0.0000    0.0000   17.5335   17.5335  190.9834
CORN    1 000010001    1    0   29.61900E-01     0.300     0.300     0.000     0.000     0.000     0.000   450.844   450.784     0.000     0.012     0.001     0.000     0.000     0.000   949.684  2000.040     0.000     0.000     0.000     0.077     0.000     0.078    96.661     0.550     6.100    -5.000     2.395     4.975     0.000     0.000    -0.913   191.872    0.0000    2.5196    2.6834    3.2162    0.3326    0.4171    0.4530    0.0000    0.0000    0.0000    0.0000   17.4946   17.4946  191.8718
CORN    1 000010001    1    0   30.61900E-01     0.000     0.000     0.000     0.000     0.495     0.247   450.784   450.692     0.000     0.012     0.001     0.010     0.000     0.000   949.686  2000.040     0.000     0.000     0.000     0.077     0.000     0.077    96.659    -1.950     1.100    -5.000     2.440     5.030     0.000     0.000    -2.285   191.390    0.0000    2.6047    2.8029    3.4023    0.3317    0.4171    0.4530    0.0000    0.0000    0.0000    0.0000   17.5157   17.5157  191.3903
CORN    1 000010001    1    0   31.61900E-01     0.000     0.000    11.222     0.000     1.443     0.721   450.692   452.987     0.188     0.018     0.001     0.029     0.000     0.000   949.674  2000.040     2.611     1.960     0.000     0.080     0.000     4.460    96.656     4.700    14.400    -5.000     3.292     6.825     0.099     0.000     1.451   166.806    2.4196    3.3603    3.4615    3.8211    0.3336    0.4171    0.4530    0.0050    0.0001    0.1225    0.1236   18.6090   16.1894  166.8057
CORN    1 000010001    1    0   32.61900E-01     0.300     0.000     0.000     0.000     0.189     0.092   452.987   453.133     0.000     0.017     0.001     0.004     0.000     0.000   949.686  2000.041     0.000     0.488     0.000     0.080     0.000     0.569    96.742     3.600    14.400    -7.200     3.439     5.706     0.000     0.000     3.387   184.327    0.0000    3.5452    3.6784    4.0937    0.3337    0.4171    0.4530    0.0000    0.0000    0.0000    0.0308   17.8264   17.8264  184.3273
CORN    1 000010001    1    0   33.61900E-01     0.000     0.000     0.000     0.000     1.320     0.659   453.133   452.414     0.000     0.017     0.001     0.026     0.000     0.000   949.676  2000.041     0.000     0.122     0.000     0.079     0.000     0.201    96.747     2.500     7.800    -2.800     3.278    10.099     0.000     0.000     3.199   184.800    0.0000    3.4375    3.6268    4.1850    0.3336    0.4171    0.4530    0.0000    0.0000    0.0000    0.0077   17.8055   17.8055  184.8000
CORN    1 000010001    1    0   34.61900E-01    21.100     0.000     0.000     0.000     0.301     0.147   452.414   453.219     0.084     0.019     0.001     0.006     0.000     0.000   949.687  2000.042    12.500     9.415     0.000     0.083     0.000    12.696    96.720     7.200    13.300     1.100     4.482     6.572     0.593     0.042     4.485   161.307    3.1984    4.4858    4.5185    4.6959    0.3337    0.4171    0.4530    0.0064    0.0001    0.1338    0.5941   18.8580   15.6597  161.3066
CORN    1 000010001    1    0   35.61900E-01     0.000     0.000     0.000     0.000     1.852     0.926   453.219   452.232     0.000     0.018     0.001     0.037     0.000     0.000   949.668  2000.042     0.000     2.346     0.000     0.082     0.000     2.429    96.750     5.250    13.300    -2.800     4.712     8.929     0.000     0.000     4.689   184.535    0.0000    4.7597    4.8250    5.0467    0.3336    0.4171    0.4530    0.0000    0.0000    0.0000    0.1481   17.8172   17.8172  184.5348
CORN    1 000010001    1    0   36.61900E-01     0.000     0.000     0.000     0.000     1.083     0.530   452.232   451.641     0.000     0.018     0.001     0.022     0.000     0.000   949.663  2000.042     0.000     0.585     0.000     0.082     0.000     0.667    96.713    -5.550    -2.200    -8.900     2.579    10.375     0.000     0.000     2.378   187.584    0.0000    2.9596    3.3678    4.4506    0.3324    0.4171    0.4530    0.0000    0.0000    0.0000    0.0369   17.6828   17.6828  187.5835
CORN    1 000010001    1    0   37.61900E-01     0.000     0.000     0.000     0.000     0.539     0.264   451.641   451.317     0.000     0.017     0.001     0.011     0.000     0.000   949.668  2000.043     0.000     0.146     0.000     0.081     0.000     0.228    96.691    -2.500     3.900    -8.900     1.432     9.201     0.000     0.000     1.201   189.409    0.0000    1.8742    2.3737    3.7678    0.3316    0.4171    0.4530    0.0000    0.0000    0.0000    0.0092   17.6025   17.6025  189.4092
CORN    1 000010001    1    0   38.61900E-01     0.000     0.000     0.000     0.000     1.248     0.626   451.317   450.631     0.000     0.016     0.001     0.025     0.000     0.000   949.659  2000.043     0.000     0.036     0.000     0.081     0.000     0.118    96.679    -1.150     4.400    -6.700     0.876     9.098     0.000     0.000     0.651   190.412    0.0000    1.3098    1.8119    3.2519    0.3295    0.4170    0.4530    0.0000    0.0000    0.0000    0.0023   17.5586   17.5586  190.4116
CORN    1 000010001    1    0   39.61900E-01     1.000     0.000     0.000     0.000     0.607     0.297   450.631   451.273     0.000     0.016     0.001     0.012     0.000     0.000   949.661  2000.043     0.000     0.009     0.000     0.081     0.000     0.090    96.653     4.700    10.000    -0.600     2.781     2.948     0.000     0.000     2.730   189.442    0.0000    2.8935    3.0695    3.7038    0.3327    0.4171    0.4530    0.0000    0.0000    0.0000    0.0006   17.6011   17.6011  189.4417
CORN    1 000010001    1    0   40.61900E-01     0.300     0.300     0.000     0.000     0.225     0.110   451.273   451.103     0.000     0.015     0.001     0.004     0.000     0.000   949.672  2000.044     0.000     0.002     0.000     0.080     0.000     0.083    96.678    -0.550     3.900    -5.000     1.316     3.093     0.000     0.000     1.106   190.547    0.0000    1.7091    2.1472    3.3659    0.3323    0.4171    0.4530    0.0000    0.0000    0.0000    0.0001   17.5526   17.5526  190.5466
CORN    1 000010001    1    0   41.61900E-01     0.500     0.500     0.000     0.000     0.070     0.035   451.103   451.007     0.000     0.015     0.001     0.001     0.000     0.000   949.684  2000.044     0.000     0.001     0.000     0.080     0.000     0.081    98.833    -7.800    -5.000   -10.600    -4.010     2.143     0.000     0.000    -4.582   190.547    0.0000   -2.9490   -1.8070    1.2294    0.3322    0.4171    0.4530    0.0000    0.0000    0.0000    0.0000    0.0000    0.0000  900.0000
CORN    1 000010001    1    0   42.61900E-01     0.300     0.300     0.000     0.000     0.000     0.000   451.007   450.947     0.000     0.014     0.001     0.000     0.000     0.000   949.698  2000.044     0.000     0.000     0.000     0.079     0.000     0.080    98.833   -11.950    -8.300   -15.600   -10.084     0.267     0.000     0.000   -10.993   190.547    0.0000   -8.4124   -6.6418   -1.9804    0.3322    0.4171    0.4530    0.0000    0.0000    0.0000    0.0000    0.0000    0.0000  900.0000
CORN    1 000010001    1    0   43.61900E-01     0.000     0.000     0.000     0.000     0.789     0.394   450.947   450.492     0.000     0.014     0.001     0.016     0.000     0.000   949.696  2000.044     0.000     0.000     0.000     0.079     0.000     0.079    98.833   -10.000    -5.600   -14.400    -2.558     7.067     0.000     0.000    -2.836   190.547    0.0000   -2.0418   -1.4790    0.0613    0.3307    0.4171    0.4530    0.0000    0.0000    0.0000    0.0000    0.0000    0.0000  900.0000
CORN    1 000010001    1    0   44.61900E-01     0.000     0.000     0.000     0.000     0.528     0.264   450.492   450.168     0.000     0.014     0.001     0.011     0.000     0.000   949.698  2000.045     0.000     0.000     0.000     0.079     0.000     0.079    98.833   -12.250    -5.600   -18.900    -2.555     9.004     0.000     0.000    -2.831   190.547    0.0000   -2.0435   -1.4854    0.0442    0.3296    0.4171    0.4530    0.0000    0.0000    0.0000    0.0000    0.0000    0.0000  900.0000
CORN    1 000010001    1    0   45.61900E-01     0.000     0.000     0.000     0.000     0.326     0.163   450.168   449.810     0.000     0.013     0.001     0.007     0.000     0.000   949.704  2000.045     0.000     0.000     0.000     0.078     0.000     0.079    98.833   -13.350    -8.900   -17.800    -2.532     9.896     0.000     0.000    -2.804   190.547    0.0000   -2.0299   -1.4831    0.0131    0.3289    0.4171    0.4530    0.0000    0.0000    0.0000    0.0000    0.0000    0.0000  900.0000
CORN    1 000010001    1    0   46.61900E-01     0.800     0.800     0.000     0.000     0.000     0.000   449.810   449.150     0.000     0.013     0.001     0.000     0.000     0.000   949.716  2000.045     0.000     0.000     0.000     0.078     0.000     0.078    98.833    -9.400    -4.400   -14.400    -1.831     9.108     0.000     0.000    -2.049   190.547    0.0000   -1.4299   -0.9880    0.2389    0.3289    0.4171    0.4530    0.0000    0.0000    0.0000    0.0000    0.0000    0.0000  900.0000
CORN    1 000010001    1    0   47.61900E-01     0.000     0.000     0.000     0.000     0.518     0.259   449.150   448.363     0.000     0.012     0.001     0.010     0.000     0.000   949.717  2000.045     0.000     0.000     0.000     0.077     0.000     0.078    98.833    -2.200     0.600    -5.000    -0.270     9.256     0.000     0.000    -1.494   190.547    0.0000   -0.0813    0.1405    0.8088    0.3277    0.4168    0.4530    0.0000    0.0000    0.0000    0.0000    0.0000    0.0000  900.0000
CORN    1 000010001    1    0   48.61900E-01     0.300     0.300     0.000     0.000     0.000     0.000   448.363   448.185     0.000     0.012     0.001     0.000     0.000     0.000   949.729  2000.045     0.000     0.000     0.000     0.077     0.000     0.078    98.833    -2.250    -0.600    -3.900    -0.481     7.012     0.000     0.000    -1.925   190.547    0.0000   -0.2592   -0.0025    0.7569    0.3272    0.4168    0.4530    0.0000    0.0000    0.0000    0.0000    0.0000    0.0000  900.0000
CORN    1 000010001    1    0   49.61900E-01     0.000     0.000     0.000     0.000     0.416     0.208   448.185   447.638     0.000     0.012     0.001     0.008     0.000     0.000   949.731  2000.045     0.000     0.000     0.000     0.077     0.000     0.077    98.833    -1.650     2.800    -6.100    -0.329     9.716     0.000     0.000    -1.823   190.547    0.0000   -0.1269    0.1093    0.8168    0.3248    0.4164    0.4530    0.0000    0.0000    0.0000    0.0000    0.0000    0.0000  900.0000
CORN    1 000010001    1    0   50.61900E-01     0.000     0.000     0.000     0.000     0.258     0.129   447.638   447.290     0.000     0.011     0.001     0.005     0.000     0.000   949.737  2000.045     0.000     0.000     0.000     0.076     0.000     0.077    98.833   -16.329    -7.284   -25.374    -3.482    13.742     0.000     0.000    -8.301   190.547    0.0000   -2.8489   -2.1657   -0.3224    0.3235    0.4161    0.4530    0.0000    0.0000    0.0000    0.0000    0.0000    0.0000  900.0000
CORN    1 000010001    1    0   51.61900E-01     0.000     0.000     2.200     0.000     2.166     1.081   447.290   445.782     0.000     0.011     0.001     0.043     0.000     0.000   949.704  2000.045     0.000     0.000     0.000     0.076     0.000     0.076    96.525    10.550    16.700     4.400     1.625     9.981     0.000     0.000     2.257   203.984    0.0000    1.5513    1.5000    1.4705    0.3226    0.4143    0.4530    0.0000    0.0000    0.0000    0.0000   16.9683   16.9683  203.9844
CORN    1 000010001    1    0   52.61900E-01     0.000     0.000     0.000     0.000     2.063     1.034   445.782   447.103     0.000     0.010     0.001     0.041     0.000     0.000   949.672  2000.045     0.000     0.000     0.000     0.078     0.000     2.051    96.465    10.850    20.000     1.700     3.263    13.474     0.000     0.000     3.383   186.118    1.9729    3.0080    2.7449    2.1780    0.3272    0.4120    0.4530    0.0001    0.0000    0.0000    0.0000   17.7474   15.7745  186.1177
CORN    1 000010001    1    0   53.61900E-01     0.000     0.000     0.000     0.000     1.035     0.507   447.103   448.343     0.000     0.010     0.001     0.021     0.000     0.000   949.661  2000.045     0.000     0.000     0.000     0.077     0.000     0.078    96.517     4.150    11.100    -2.800     3.481    10.535     0.000     0.000     3.558   197.845    0.0000    3.3284    3.2074    3.1054    0.3313    0.4151    0.4530    0.0000    0.0000    0.0000    0.0000   17.2340   17.2340  197.8451
CORN    1 000010001    1    0   54.61900E-01     0.000     0.000     0.000     0.000     1.350     0.681   448.343   448.414     0.000     0.010     0.000     0.027     0.000     0.000   949.644  2000.045     0.000     0.000     0.000     0.077     0.000     0.077    96.566     1.700     5.600    -2.200     3.047     8.622     0.000     0.000     3.076   197.091    0.0000    3.0107    3.0389    3.3731    0.3282    0.4141    0.4530    0.0000    0.0000    0.0000    0.0000   17.2668   17.2668  197.0906
CORN    1 000010001    1    0   55.61900E-01    24.900     0.000     0.000     0.000     0.109     0.054   448.414   453.313     0.238     0.017     0.001     0.002     0.000     0.000   949.658  2000.046    11.916     8.946     0.000     0.081     0.000    12.486    96.568     3.850     9.400    -1.700     3.443     2.674     0.554     0.138     3.488   159.470    3.4584    3.3792    3.3858    3.6906    0.3337    0.4171    0.4530    0.0008    0.0000    0.1767    0.5762   18.9415   15.4831  159.4705
CORN    1 000010001    1    0   56.61900E-01    13.200    13.200     2.699     0.000     1.003     0.513   453.313   453.355     0.006     0.017     0.001     0.020     0.000     0.000   949.653  2000.046     0.045     2.263     0.000     0.082     0.000     3.426    96.754     1.700     5.600    -2.200     2.595     2.880     0.000     0.000     2.566   176.263    1.0803    2.6737    2.8348    3.5582    0.3336    0.4171    0.4530    0.0003    0.0000    0.0437    0.1457   18.1845   17.1042  176.2633
CORN    1 000010001    1    0   57.61900E-01     2.300     2.300     0.000     0.000     0.000     0.000   453.355   453.360     0.000     0.016     0.001     0.000     0.000     0.000   949.669  2000.046     0.000     0.564     0.000     0.082     0.000     0.781    96.755    -2.500     0.000    -5.000     1.987     6.118     0.000     0.000    -2.318   182.960    0.1348    2.1438    2.3871    3.3212    0.3336    0.4171    0.4530    0.0000    0.0000    0.0000    0.0363   17.8869   17.7521  182.9597
CORN    1 000010001    1    0   58.61900E-01     0.000     0.000     0.000     0.000     0.582     0.291   453.360   453.009     0.000     0.016     0.001     0.012     0.000     0.000   949.672  2000.047     0.000     0.141     0.000     0.081     0.000     0.222    96.755    -2.200     0.600    -5.000     2.199     9.198     0.000     0.000    -2.709   184.099    0.0000    2.3568    2.6083    3.3759    0.3336    0.4171    0.4530    0.0000    0.0000    0.0000    0.0091   17.8365   17.8365  184.0991
CORN    1 000010001    1    0   59.61900E-01     0.000     0.000     1.496     0.000     1.314     0.677   453.009   453.347     0.031     0.016     0.001     0.026     0.000     0.000   949.661  2000.047     0.000     0.035     0.000     0.081     0.000     0.562    96.742     1.150     5.600    -3.300     2.436    11.177     0.000     0.000    -1.570   180.750    0.4450    2.5713    2.8017    3.5041    0.3336    0.4171    0.4530    0.0002    0.0000    0.0220    0.0023   17.9848   17.5399  180.7496
CORN    1 000010001    1    0   60.61900E-01     3.000     0.000    10.146     0.000     0.336     0.165   453.347   453.202     0.000     0.016     0.001     0.007     0.000     0.000   949.669  2000.047     6.550     4.926     0.000     0.085     0.000     8.200    96.755     9.150    17.200     1.100     3.874     3.508     0.303     0.001     6.575   161.381    3.1878    3.8285    3.8739    4.1054    0.3337    0.4171    0.4530    0.0002    0.0000    0.1099    0.3137   18.8546   15.6668  161.3810
CORN    1 000010001    1    0   61.61900E-01     0.000     0.000     0.000     0.000     4.890     2.440   453.202   450.702     0.000     0.015     0.001     0.098     0.000     0.000   949.586  2000.047     0.000     1.228     0.000     0.084     0.000     1.313    96.749     5.300    10.600     0.000     4.174    15.106     0.000     0.000     4.166   184.588    0.0000    4.2227    4.2922    4.5364    0.3335    0.4170    0.4530    0.0000    0.0000    0.0000    0.0782   17.8149   17.8149  184.5880
CORN    1 000010001    1    0   62.61900E-01    13.200    13.200    13.200     0.000     1.366     0.681   450.702   452.686     0.169     0.020     0.001     0.027     0.000     0.000   949.577  2000.048     4.686     3.824     0.000     0.087     0.000     6.728    96.656     1.950    10.600    -6.700     3.668     8.362     0.198     0.000     3.593   164.003    2.8165    3.8388    4.0301    4.5753    0.3336    0.4171    0.4530    0.0005    0.0000    0.1212    0.2420   18.7357   15.9192  164.0033
CORN    1 000010001    1    0   63.61900E-01     0.000     0.000     0.000     0.000     2.020     1.019   452.686   451.606     0.000     0.019     0.001     0.040     0.000     0.000   949.555  2000.048     0.000     0.953     0.000     0.087     0.000     1.040    96.730    -3.050     0.000    -6.100     2.720    15.981     0.000     0.000     2.570   186.182    0.0000    3.0138    3.3450    4.2679    0.3322    0.4170    0.4530    0.0000    0.0000    0.0000    0.0603   17.7445   17.7445  186.1823
CORN    1 000010001    1    0   64.61900E-01     4.100     4.100     0.000     0.000     0.000     0.000   451.606   451.546     0.000     0.019     0.001     0.000     0.000     0.000   949.573  2000.049     0.000     0.238     0.000     0.086     0.000     0.324    96.690    -1.400     0.000    -2.800     2.012    12.310     0.000     0.000     1.831   189.518    0.0000    2.3594    2.7568    3.8840    0.3322    0.4170    0.4530    0.0000    0.0000    0.0000    0.0150   17.5978   17.5978  189.5183
CORN    1 000010001    1    0   65.61900E-01     0.000     0.000     0.000     0.000     0.497     0.260   451.546   451.225     0.000     0.018     0.001     0.010     0.000     0.000   949.580  2000.049     0.000     0.059     0.000     0.086     0.000     0.145    96.688    -0.800     0.600    -2.200     2.210    17.890     0.000     0.000    -1.326   189.705    0.0000    2.4820    2.8096    3.7871    0.3314    0.4170    0.4529    0.0000    0.0000    0.0000    0.0037   17.5895   17.5895  189.7053
CORN    1 000010001    1    0   66.61900E-01     0.000     0.000     0.000     0.000     1.568     0.810   451.225   451.139     0.000     0.018     0.001     0.031     0.000     0.000   949.566  2000.050     0.000     0.015     0.000     0.085     0.000     0.100    96.676     0.550     2.800    -1.700     2.405    14.637     0.000     0.000    -0.726   190.694    0.0000    2.6463    2.9381    3.8157    0.3313    0.4170    0.4529    0.0000    0.0000    0.0000    0.0009   17.5462   17.5462  190.6941
CORN    1 000010001    1    0   67.61900E-01     0.000     0.000     3.316     0.000     3.179     1.589   451.139   451.778     0.145     0.022     0.001     0.064     0.000     0.000   949.523  2000.050     0.000     0.004     0.000     0.085     0.000     0.462    96.672     2.750     7.200    -1.700     2.641    17.454     0.000     0.000    -0.147   181.259    0.3729    2.8566    3.1189    3.9135    0.3336    0.4170    0.4530    0.0002    0.0000    0.0361    0.0002   17.9623   17.5894  181.2588
CORN    1 000010001    1    0   68.61900E-01     0.000     0.000     0.000     0.000     3.992     2.016   451.778   449.701     0.000     0.021     0.001     0.080     0.000     0.000   949.463  2000.051     0.000     0.001     0.000     0.085     0.000     0.086    96.696    10.850    16.100     5.600     3.984    15.267     0.000     0.000     3.967   188.989    0.0000    4.0286    4.1129    4.4526    0.3269    0.4169    0.4529    0.0000    0.0000    0.0000    0.0001   17.6210   17.6210  188.9886
CORN    1 000010001    1    0   69.61900E-01     0.000     0.000     0.000     0.000     4.066     2.046   449.701   447.595     0.000     0.020     0.001     0.081     0.000     0.000   949.401  2000.051     0.000     0.000     0.000     0.084     0.000     0.085    96.618    16.700    21.700    11.700     6.145    14.331     0.000     0.000     6.248   195.403    0.0000    5.9689    5.8135    5.5065    0.3181    0.4152    0.4529    0.0000    0.0000    0.0000    0.0000   17.3403   17.3403  195.4030
CORN    1 000010001    1    0   70.61900E-01    15.500     0.000     0.000     0.000     1.347     0.681   447.595   452.686     0.225     0.027     0.001     0.027     0.000     0.000   949.399  2000.052     2.334     1.752     0.000     0.088     0.000     4.870    96.536    16.650    21.100    12.200    11.168     2.877     0.051     0.013    11.597   162.495    3.0301   10.4278    9.6865    7.8588    0.3336    0.4171    0.4530    0.0002    0.0000    0.1623    0.1115   18.8041   15.7740  162.4948
CORN    1 000010001    1    0   71.61900E-01    18.000     0.000     0.000     0.000     1.977     0.986   452.686   452.381     0.065     0.028     0.001     0.040     0.000     0.000   949.386  2000.052     9.916     7.881     0.000     0.091     0.000    11.076    96.730    10.300    15.000     5.600    11.066     9.596     0.427     0.116    11.251   161.977    3.1035   10.6927   10.2511    8.9892    0.3336    0.4171    0.4530    0.0002    0.0000    0.1273    0.4997   18.8276   15.7241  161.9768
CORN    1 000010001    1    0   72.61900E-01     0.000     0.000     0.000     0.000     2.404     1.209   452.381   451.111     0.000     0.027     0.001     0.048     0.000     0.000   949.364  2000.053     0.000     1.964     0.000     0.090     0.000     2.055    96.719     6.950    11.100     2.800    10.434    14.657     0.000     0.000    10.521   187.126    0.0000   10.2582   10.0351    9.3526    0.3310    0.4170    0.4529    0.0000    0.0000    0.0000    0.1245   17.7030   17.7030  187.1259
CORN    1 000010001    1    0   73.61900E-01     6.300     0.000     0.000     0.000     1.627     0.813   451.111   452.553     0.172     0.032     0.002     0.033     0.000     0.000   949.361  2000.054     0.000     0.490     0.000     0.092     0.000     2.206    96.671    12.750    17.200     8.300    10.989     8.774     0.000     0.000    11.107   172.420    1.6245   10.7659   10.5139    9.8093    0.3336    0.4171    0.4530    0.0001    0.0000    0.0828    0.0310   18.3564   16.7319  172.4204
CORN    1 000010001    1    0   74.61900E-01     2.300     0.000     0.000     0.000     0.397     0.194   452.553   453.173     0.081     0.033     0.002     0.008     0.000     0.000   949.385  2000.055     0.000     0.122     0.000     0.092     0.000     0.788    96.725    12.750    17.200     8.300    11.612     4.872     0.000     0.000    11.736   179.845    0.5731   11.3707   11.0964   10.3332    0.3337    0.4171    0.4530    0.0000    0.0000    0.0298    0.0077   18.0250   17.4519  179.8450
CORN    1 000010001    1    0   75.61900E-01    27.700     0.000     0.000     0.000     1.080     0.542   453.173   452.825     0.021     0.033     0.002     0.022     0.000     0.000   949.395  2000.056    19.352    14.559     0.000     0.096     0.000    18.098    96.748    13.850    18.300     9.400    12.451     4.409     0.468     0.055    12.595   159.582    3.4426   12.1674   11.8459   10.9573    0.3336    0.4171    0.4530    0.0002    0.0000    0.1348    0.9143   18.9364   15.4939  159.5822
CORN    1 000010001    1    0   76.61900E-01     0.000     0.000     0.000     0.000     3.572     1.796   452.825   450.968     0.000     0.032     0.002     0.071     0.000     0.000   949.354  2000.057     0.000     3.629     0.000     0.095     0.000     3.724    96.736    13.300    17.200     9.400    12.625    13.496     0.000     0.000    12.737   185.754    0.0000   12.4006   12.1365   11.3776    0.3319    0.4170    0.4529    0.0000    0.0000    0.0000    0.2279   17.7634   17.7634  185.7542
CORN    1 000010001    1    0   77.61900E-01     0.000     0.000     0.000     0.000     3.734     1.867   450.968   449.040     0.000     0.031     0.002     0.075     0.000     0.000   949.308  2000.058     0.000     0.904     0.000     0.094     0.000     0.999    96.666     9.450    15.600     3.300    12.155    15.073     0.000     0.000    12.211   191.490    0.0000   12.0432   11.9015   11.4598    0.3242    0.4169    0.4529    0.0000    0.0000    0.0000    0.0568   17.5113   17.5113  191.4899
CORN    1 000010001    1    0   78.61900E-01     0.000     0.000     0.000     0.000     2.557     1.277   449.040   447.703     0.000     0.030     0.001     0.051     0.000     0.000   949.285  2000.059     0.000     0.225     0.000     0.093     0.000     0.319    96.592     7.750    14.400     1.100    11.477    14.621     0.000     0.000    11.481   197.446    0.0000   11.4636   11.4333   11.3016    0.3188    0.4152    0.4529    0.0000    0.0000    0.0000    0.0142   17.2514   17.2514  197.4460
CORN    1 000010001    1    0   79.61900E-01     0.000     0.000     0.000     0.000     2.864     1.433   447.703   446.210     0.000     0.029     0.001     0.057     0.000     0.000   949.255  2000.060     0.000     0.056     0.000     0.093     0.000     0.149    96.541     5.550    11.100     0.000    10.611    15.558     0.000     0.000    10.560   201.577    0.0000   10.6972   10.7770   10.9526    0.3132    0.4121    0.4529    0.0000    0.0000    0.0000    0.0035   17.0722   17.0722  201.5770
CORN    1 000010001    1    0   80.61900E-01     0.000     0.000     0.000     0.000     2.282     1.137   446.210   445.012     0.000     0.028     0.001     0.046     0.000     0.000   949.236  2000.061     0.000     0.014     0.000     0.092     0.000     0.107    96.482     1.150     5.600    -3.300     9.219    15.540     0.000     0.000     9.080   206.190    0.0000    9.4574    9.6991   10.3084    0.3091    0.4088    0.4529    0.0000    0.0000    0.0000    0.0009   16.8733   16.8733  206.1903
CORN    1 000010001    1    0   81.61900E-01     0.000     0.000     0.000     0.000     3.099     1.545   445.012   443.407     0.000     0.027     0.001     0.062     0.000     0.000   949.200  2000.061     0.000     0.003     0.000     0.091     0.000     0.095    96.434     0.550     6.700    -5.600     8.022    16.552     0.000     0.000     7.835   209.890    0.0000    8.3441    8.6837    9.5800    0.3037    0.4036    0.4529    0.0000    0.0000    0.0000    0.0002   16.7145   16.7145  209.8904
CORN    1 000010001    1    0   82.61900E-01     0.000     0.000     0.000     0.000     2.951     1.480   443.407   441.866     0.000     0.026     0.001     0.059     0.000     0.000   949.166  2000.062     0.000     0.001     0.000     0.091     0.000     0.092    96.370     2.200     9.400    -5.000     7.253    16.654     0.000     0.000     7.054   214.848    0.0000    7.5924    7.9590    8.9530    0.2988    0.3979    0.4528    0.0000    0.0000    0.0000    0.0001   16.5029   16.5029  214.8485
CORN    1 000010001    1    0   83.61900E-01     0.000     0.000     0.000     0.000     2.849     1.442   441.866   440.364     0.000     0.025     0.001     0.057     0.000     0.000   949.133  2000.062     0.000     0.000     0.000     0.090     0.000     0.091    96.306     9.450    16.700     2.200     7.663    15.128     0.000     0.000     7.546   219.608    0.0000    7.8647    8.0999    8.7870    0.2943    0.3927    0.4526    0.0000    0.0000    0.0000    0.0000   16.3011   16.3011  219.6080
CORN    1 000010001    1    0   84.61900E-01     0.000     0.000     0.000     0.000     4.224     2.126   440.364   438.178     0.000     0.025     0.001     0.084     0.000     0.000   949.072  2000.063     0.000     0.000     0.000     0.089     0.000     0.090    96.244    13.600    17.200    10.000     8.789    12.824     0.000     0.000     8.778   224.249    0.0000    8.8154    8.8696    9.0910    0.2881    0.3853    0.4522    0.0000    0.0000    0.0000    0.0000   16.1055   16.1055  224.2491
CORN    1 000010001    1    0   85.61900E-01    14.200     0.000     0.000     0.000     0.887     0.454   438.178   451.863     0.000     0.024     0.001     0.018     0.000     0.000   949.077  2000.063     0.000     0.000     0.000     0.089     0.000     0.089    96.152     9.700    19.400     0.000     9.115     6.528     0.000     0.000     9.098   187.134    0.0000    9.1448    9.1864    9.3310    0.3331    0.4171    0.4530    0.0000    0.0000    0.0000    0.0000   17.7026   17.7026  187.1340
CORN    1 000010001    1    0   86.61900E-01     0.000     0.000     0.000     0.000     2.292     1.141   451.863   450.663     0.000     0.023     0.001     0.046     0.000     0.000   949.053  2000.064     0.000     0.000     0.000     0.088     0.000     0.089    96.700     0.850     2.800    -1.100     7.958    16.298     0.000     0.000     7.847   188.722    0.0000    8.1681    8.3951    8.9988    0.3308    0.4170    0.4530    0.0000    0.0000    0.0000    0.0000   17.6327   17.6327  188.7219
CORN    1 000010001    1    0   87.61900E-01     0.000     0.000     0.000     0.000     3.380     1.692   450.663   448.911     0.000     0.022     0.001     0.068     0.000     0.000   949.007  2000.064     0.000     0.000     0.000     0.088     0.000     0.088    96.654     6.650    13.300     0.000     7.809    15.985     0.000     0.000     7.718   192.432    0.0000    7.9847    8.1895    8.7787    0.3247    0.4170    0.4529    0.0000    0.0000    0.0000    0.0000   17.4700   17.4700  192.4321
CORN    1 000010001    1    0   88.61900E-01    12.400     0.000     0.000     0.000     2.787     1.390   448.911   451.976     0.225     0.029     0.001     0.056     0.000     0.000   948.978  2000.065     1.791     1.345     0.000     0.091     0.000     3.930    96.587    14.200    22.800     5.600     8.984    13.150     0.072     0.029     8.995   166.279    2.4942    8.9737    8.9876    9.1002    0.3336    0.4171    0.4530    0.0002    0.0000    0.1370    0.0847   18.6328   16.1385  166.2788
CORN    1 000010001    1    0   89.61900E-01     0.000     0.000     0.000     0.000     2.192     1.101   451.976   450.814     0.000     0.028     0.001     0.044     0.000     0.000   948.961  2000.066     0.000     0.335     0.000     0.090     0.000     0.426    96.704     3.050     7.800    -1.700     8.368    20.865     0.000     0.000     8.301   188.375    0.0000    8.4951    8.6343    9.0167    0.3303    0.4170    0.4529    0.0000    0.0000    0.0000    0.0211   17.6480   17.6480  188.3750
CORN    1 000010001    1    0   90.61900E-01     0.000     0.000     0.000     0.000     3.581     1.797   450.814   448.956     0.000     0.027     0.001     0.072     0.000     0.000   948.915  2000.066     0.000     0.084     0.000     0.089     0.000     0.173    96.660     5.000    11.100    -1.100     7.808    12.828     0.000     0.000     7.710   191.965    0.0000    7.9918    8.1964    8.7639    0.3229    0.4169    0.4529    0.0000    0.0000    0.0000    0.0053   17.4905   17.4905  191.9651
CORN    1 000010001    1    0   91.61900E-01     3.800     0.000     0.000     0.000     0.875     0.428   448.956   452.268     0.000     0.026     0.001     0.017     0.000     0.000   948.922  2000.067     0.000     0.021     0.000     0.089     0.000     0.110    96.589    12.500    20.000     5.000     8.891     9.741     0.000     0.000     8.896   185.965    0.0000    8.8892    8.9109    9.0389    0.3331    0.4171    0.4530    0.0000    0.0000    0.0000    0.0013   17.7541   17.7541  185.9650
CORN    1 000010001    1    0   92.61900E-01    11.700     0.000     0.000     0.000     1.159     0.567   452.268   452.800     0.098     0.028     0.001     0.023     0.000     0.000   948.926  2000.068     4.333     3.258     0.000     0.091     0.000     5.953    96.715    12.250    18.900     5.600     9.683     9.809     0.168     0.042     9.718   165.511    2.6029    9.6208    9.5653    9.4591    0.3337    0.4171    0.4530    0.0002    0.0000    0.1093    0.2056   18.6674   16.0645  165.5114
CORN    1 000010001    1    0   93.61900E-01     1.300     0.000     0.000     0.000     1.530     0.764   452.800   452.603     0.060     0.029     0.001     0.031     0.000     0.000   948.923  2000.068     0.000     0.812     0.000     0.091     0.000     1.164    96.735     7.250    13.900     0.600     9.016     6.895     0.000     0.000     8.972   182.054    0.2602    9.1004    9.1876    9.4131    0.3336    0.4171    0.4530    0.0000    0.0000    0.0158    0.0512   17.9270   17.6667  182.0542
CORN    1 000010001    1    0   94.61900E-01     1.500     1.500     1.500     0.000     0.322     0.157   452.603   453.209     0.076     0.031     0.002     0.006     0.000     0.000   948.946  2000.069     0.000     0.202     0.000     0.091     0.000     0.549    96.727     0.850     6.700    -5.000     6.529     6.205     0.000     0.000     6.316   182.091    0.2550    6.9347    7.3650    8.4805    0.3337    0.4171    0.4530    0.0000    0.0000    0.0171    0.0128   17.9254   17.6704  182.0913
CORN    1 000010001    1    0   95.61900E-01     0.000     0.000     0.000     0.000     3.294     1.643   453.209   451.506     0.000     0.030     0.001     0.066     0.000     0.000   948.909  2000.070     0.000     0.050     0.000     0.090     0.000     0.141    96.750     4.750    12.800    -3.300     6.311    17.766     0.000     0.000     6.164   184.566    0.0000    6.6079    6.9578    7.9617    0.3336    0.4170    0.4530    0.0000    0.0000    0.0000    0.0032   17.8159   17.8159  184.5657
CORN    1 000010001    1    0   96.61900E-01     0.000     0.000     0.000     0.000     2.378     1.185   451.506   450.260     0.000     0.029     0.001     0.048     0.000     0.000   948.889  2000.071     0.000     0.013     0.000     0.090     0.000     0.103    96.686     2.200    10.000    -5.600     5.881    19.795     0.000     0.000     5.721   189.828    0.0000    6.1870    6.5401    7.5522    0.3293    0.4170    0.4529    0.0000    0.0000    0.0000    0.0008   17.5841   17.5841  189.8285
CORN    1 000010001    1    0   97.61900E-01     0.000     0.000     0.000     0.000     2.421     1.205   450.260   448.995     0.000     0.028     0.001     0.048     0.000     0.000   948.867  2000.071     0.000     0.003     0.000     0.089     0.000     0.093    96.639     0.300     5.000    -4.400     5.325    21.405     0.000     0.000     5.146   193.677    0.0000    5.6612    6.0440    7.1335    0.3239    0.4167    0.4529    0.0000    0.0000    0.0000    0.0002   17.4156   17.4156  193.6768
CORN    1 000010001    1    0   98.61900E-01    25.900     0.000     0.000     0.000     2.022     1.006   448.995   452.361     0.246     0.035     0.002     0.040     0.000     0.000   948.860  2000.072    13.137     9.863     0.000     0.093     0.000    13.403    96.591    10.550    18.300     2.800     6.180    16.028     0.699     0.434     6.095   159.559    3.4459    6.3447    6.5557    7.2238    0.3336    0.4171    0.4530    0.0002    0.0000    0.1699    0.6244   18.9375   15.4916  159.5588
CORN    1 000010001    1    0   99.61900E-01     2.800     2.800     2.800     0.000     0.993     0.486   452.361   452.881     0.102     0.037     0.002     0.020     0.000     0.000   948.875  2000.073     0.000     2.458     0.000     0.093     0.000     3.248    96.718     1.950     6.100    -2.200     5.369    10.720     0.000     0.000     5.218   178.981    0.6955    5.6625    5.9965    6.9391    0.3337    0.4171    0.4530    0.0001    0.0000    0.0359    0.1556   18.0634   17.3680  178.9806
CORN    1 000010001    1    0  100.61900E-01     3.800     3.800     3.800     0.000     0.275     0.135   452.881   453.232     0.052     0.038     0.002     0.006     0.000     0.000   948.905  2000.074     0.000     0.613     0.000     0.094     0.000     2.072    96.738    -0.550     3.900    -5.000     3.569     6.064     0.000     0.000     3.318   174.254    1.3648    4.0602    4.6087    6.1148    0.3337    0.4171    0.4530    0.0002    0.0000    0.0572    0.0388   18.2743   16.9095  174.2545
CORN    1 000010001    1    0  101.61900E-01     0.500     0.500     0.000     0.000     0.118     0.059   453.232   453.112     0.000     0.036     0.002     0.002     0.000     0.000   948.937  2000.075     0.000     0.153     0.000     0.093     0.000     0.247    96.751    -0.850     2.200    -3.900     1.473     2.726     0.000     0.000     1.141   184.496    0.0000    2.1306    2.8734    4.9260    0.3337    0.4171    0.4530    0.0000    0.0000    0.0000    0.0097   17.8190   17.8190  184.4958
CORN    1 000010001    1    0  102.61900E-01     3.300     0.000     0.500     0.000     0.224     0.109   453.112   453.257     0.021     0.036     0.002     0.004     0.000     0.000   948.967  2000.076     0.197     0.186     0.000     0.094     0.000     1.673    96.746     6.650    12.200     1.100     3.484     3.005     0.006     0.002     3.380   174.060    1.3923    3.7113    4.0276    5.0719    0.3337    0.4171    0.4530    0.0004    0.0000    0.0570    0.0116   18.2830   16.8906  174.0601
CORN    1 000010001    1    0  103.61900E-01    19.800     0.000     0.000     0.000     0.626     0.306   453.257   453.061     0.012     0.035     0.002     0.013     0.000     0.000   948.988  2000.077    12.177     9.188     0.000     0.098     0.000    12.460    96.752     5.000    11.700    -1.700     4.131     4.626     0.677     0.148     4.041   161.484    3.1732    4.3201    4.5645    5.3393    0.3337    0.4171    0.4530    0.0010    0.0000    0.1230    0.5718   18.8499   15.6767  161.4844
CORN    1 000010001    1    0  104.61900E-01     0.000     0.000     0.000     0.000     3.879     1.929   453.061   451.071     0.000     0.034     0.002     0.078     0.000     0.000   948.942  2000.078     0.000     2.290     0.000     0.097     0.000     2.388    96.744     5.000     9.400     0.600     4.340    17.354     0.000     0.000     4.245   185.025    0.0000    4.5332    4.7724    5.5021    0.3331    0.4170    0.4530    0.0000    0.0000    0.0000    0.1425   17.7956   17.7956  185.0254
CORN    1 000010001    1    0  105.61900E-01     0.000     0.000     0.000     0.000     3.737     1.859   451.071   449.151     0.000     0.033     0.002     0.075     0.000     0.000   948.899  2000.079     0.000     0.571     0.000     0.096     0.000     0.668    96.670     7.200    12.200     2.200     4.803    19.363     0.000     0.000     4.728   191.173    0.0000    4.9513    5.1381    5.7262    0.3253    0.4170    0.4529    0.0000    0.0000    0.0000    0.0355   17.5252   17.5252  191.1725
CORN    1 000010001    1    0  106.61900E-01     0.000     0.000     0.000     0.000     5.157     2.581   449.151   446.510     0.000     0.032     0.002     0.103     0.000     0.000   948.826  2000.079     0.000     0.142     0.000     0.095     0.000     0.238    96.597    10.000    15.600     4.400     5.544    20.056     0.000     0.000     5.507   197.103    0.0000    5.6201    5.7264    6.0932    0.3144    0.4136    0.4529    0.0000    0.0000    0.0000    0.0089   17.2663   17.2663  197.1030
CORN    1 000010001    1    0  107.61900E-01     0.000     0.000     0.000     0.000     5.975     2.977   446.510   443.472     0.000     0.031     0.002     0.119     0.000     0.000   948.736  2000.080     0.000     0.035     0.000     0.095     0.000     0.131    96.494    15.300    21.700     8.900     6.970    17.821     0.000     0.000     7.019   205.264    0.0000    6.8952    6.8420    6.7862    0.3033    0.4051    0.4529    0.0000    0.0000    0.0000    0.0022   16.9131   16.9131  205.2637
CORN    1 000010001    1    0  108.61900E-01     0.000     0.000     0.000     0.000     4.978     2.492   443.472   440.920     0.000     0.030     0.001     0.100     0.000     0.000   948.664  2000.081     0.000     0.009     0.000     0.094     0.000     0.104    96.372    16.350    23.300     9.400     8.371    17.514     0.000     0.000     8.482   214.647    0.0000    8.1904    8.0198    7.6313    0.2952    0.3953    0.4528    0.0000    0.0000    0.0000    0.0005   16.5115   16.5115  214.6475
CORN    1 000010001    1    0  109.61900E-01     0.000     0.000     0.000     0.000     5.748     2.874   440.920   437.986     0.000     0.029     0.001     0.115     0.000     0.000   948.577  2000.081     0.000     0.002     0.000     0.093     0.000     0.096    96.267    17.500    25.600     9.400     9.637    19.527     0.000     0.000     9.796   222.532    0.0000    9.3852    9.1332    8.5105    0.2866    0.3851    0.4522    0.0000    0.0000    0.0000    0.0001   16.1777   16.1777  222.5321
CORN    1 000010001    1    0  110.61900E-01     0.000     0.000     0.000     0.000     6.867     3.438   437.986   434.488     0.000     0.028     0.001     0.137     0.000     0.000   948.466  2000.082     0.000     0.001     0.000     0.093     0.000     0.094    96.144    19.450    27.200    11.700    11.008    18.993     0.000     0.000    11.229   231.596    0.0000   10.6683   10.3242    9.4549    0.2774    0.3740    0.4507    0.0000    0.0000    0.0000    0.0000   15.7982   15.7982  231.5961
CORN    1 000010001    1    0  111.61900E-01     0.000     0.000     0.000     0.000     3.960     1.995   434.488   432.432     0.000     0.027     0.001     0.079     0.000     0.000   948.413  2000.082     0.000     0.000     0.000     0.092     0.000     0.093    95.991    14.150    18.900     9.400    11.511    23.659     0.000     0.000    11.698   242.404    0.0000   11.2228   10.9211   10.1300    0.2726    0.3682    0.4496    0.0000    0.0000    0.0000    0.0000   15.3514   15.3514  242.4038
CORN    1 000010001    1    0  112.61900E-01     0.000     0.000     0.000     0.000     4.928     2.467   432.432   429.905     0.000     0.026     0.001     0.099     0.000     0.000   948.339  2000.083     0.000     0.000     0.000     0.091     0.000     0.092    95.900    17.500    24.400    10.600    12.359    20.120     0.000     0.000    12.577   248.753    0.0000   12.0278   11.6876   10.8090    0.2669    0.3614    0.4480    0.0000    0.0000    0.0000    0.0000   15.0919   15.0919  248.7532
CORN    1 000010001    1    0  113.61900E-01     2.500     0.000     0.000     0.000     0.915     0.448   429.905   431.897     0.000     0.025     0.001     0.018     0.000     0.000   948.345  2000.083     0.000     0.000     0.000     0.091     0.000     0.091    95.785    14.700    17.200    12.200    12.906     9.761     0.000     0.000    13.116   248.836    0.0000   12.5856   12.2536   11.3871    0.2660    0.3603    0.4520    0.0000    0.0000    0.0000    0.0000   15.0885   15.0885  248.8364
CORN    1 000010001    1    0  114.61900E-01     1.000     0.000     0.000     0.000     0.382     0.187   431.897   432.650     0.000     0.025     0.001     0.008     0.000     0.000   948.361  2000.083     0.000     0.000     0.000     0.090     0.000     0.091    95.876    10.850    17.800     3.900    11.996     3.494     0.000     0.000    12.055   247.317    0.0000   11.8991   11.7767   11.4017    0.2656    0.3639    0.4528    0.0000    0.0000    0.0000    0.0000   15.1504   15.1504  247.3173
CORN    1 000010001    1    0  115.61900E-01     0.000     0.000     0.000     0.000     3.068     1.546   432.650   431.044     0.000     0.024     0.001     0.061     0.000     0.000   948.322  2000.084     0.000     0.000     0.000     0.089     0.000     0.090    95.910    10.250    14.400     6.100    11.810    15.906     0.000     0.000    11.859   248.081    0.0000   11.7335   11.6465   11.3974    0.2623    0.3599    0.4517    0.0000    0.0000    0.0000    0.0000   15.1193   15.1193  248.0808
CORN    1 000010001    1    0  116.61900E-01     0.000     0.000     0.000     0.000     6.559     3.209   431.044   427.774     0.000     0.023     0.001     0.131     0.000     0.000   948.213  2000.084     0.000     0.000     0.000     0.089     0.000     0.090    95.837    13.900    21.700     6.100    12.191    16.077     0.000     0.000    12.279   253.043    0.0000   12.0567   11.9217   11.5762    0.2557    0.3516    0.4493    0.0000    0.0000    0.0000    0.0000   14.9178   14.9178  253.0427
CORN    1 000010001    1    0  117.61900E-01     0.000     0.000     0.000     0.000     5.449     2.533   427.774   425.181     0.000     0.022     0.001     0.109     0.000     0.000   948.125  2000.084     0.000     0.000     0.000     0.088     0.000     0.089    95.686    21.150    26.700    15.600    13.414    19.402     0.000     0.000    13.614   265.112    0.0000   13.1170   12.8299   12.1282    0.2506    0.3451    0.4474    0.0000    0.0000    0.0000    0.0000   14.4333   14.4333  265.1118
CORN    1 000010001    1    0  118.61900E-01     0.000     0.000     0.000     0.000     3.999     1.784   425.181   423.337     0.000     0.022     0.001     0.080     0.000     0.000   948.065  2000.085     0.000     0.000     0.000     0.087     0.000     0.088    95.563    15.800    27.200     4.400    13.832    21.872     0.000     0.000    14.015   274.684    0.0000   13.5569   13.2798   12.5725    0.2470    0.3407    0.4460    0.0000    0.0000    0.0000    0.0000   14.0547   14.0547  274.6844
CORN    1 000010001    1    0  119.61900E-01     2.500     0.000     0.000     0.000     1.095     0.472   423.337   425.305     0.000     0.021     0.001     0.022     0.000     0.000   948.063  2000.085     0.000     0.000     0.000     0.087     0.000     0.088    95.473     9.700    15.000     4.400    13.298    15.184     0.000     0.000    13.379   272.263    0.0000   13.1718   13.0304   12.6325    0.2461    0.3396    0.4499    0.0000    0.0000    0.0000    0.0000   14.1500   14.1500  272.2633
CORN    1 000010001    1    0  120.61900E-01     0.500     0.000     0.000     0.000     0.894     0.384   425.305   425.362     0.000     0.020     0.001     0.018     0.000     0.000   948.065  2000.085     0.000     0.000     0.000     0.086     0.000     0.087    95.569    11.400    15.600     7.200    12.811     7.459     0.000     0.000    12.839   272.381    0.0000   12.7646   12.7062   12.5250    0.2454    0.3387    0.4505    0.0000    0.0000    0.0000    0.0000   14.1453   14.1453  272.3809
CORN    1 000010001    1    0  121.61900E-01     0.000     0.000     0.000     0.000     4.406     1.917   425.362   423.385     0.000     0.020     0.001     0.088     0.000     0.000   947.995  2000.085     0.000     0.000     0.000     0.086     0.000     0.087    95.571     9.700    14.400     5.000    12.578    21.406     0.000     0.000    12.593   274.018    0.0000   12.5522   12.5203   12.4208    0.2417    0.3341    0.4489    0.0000    0.0000    0.0000    0.0000   14.0809   14.0809  274.0183
CORN    1 000010001    1    0  122.61900E-01     9.400     0.000     0.000     0.000     2.315     1.148   423.385   431.577     0.000     0.019     0.001     0.046     0.000     0.000   947.967  2000.085     0.000     0.000     0.000     0.085     0.000     0.086    95.476    11.950    15.000     8.900    12.529    12.523     0.000     0.000    12.549   246.614    0.0000   12.4986   12.4656   12.3743    0.2399    0.4015    0.4522    0.0000    0.0000    0.0000    0.0000   15.1791   15.1791  246.6143
CORN    1 000010001    1    0  123.61900E-01    22.600     0.000     0.000     0.000     3.114     1.558   431.577   451.809     0.000     0.018     0.001     0.062     0.000     0.000   947.922  2000.085     0.000     0.000     0.000     0.086     0.000     0.393    95.861    15.550    22.800     8.300    13.203    10.038     0.000     0.000    13.305   180.677    0.3067   13.0540   12.9203   12.6016    0.3336    0.4170    0.4530    0.0000    0.0000    0.1494    0.0000   17.9881   17.6814  180.6772
CORN    1 000010001    1    0  124.61900E-01     0.300     0.000     0.000     0.000     1.027     0.503   451.809   451.546     0.000     0.018     0.001     0.021     0.000     0.000   947.919  2000.085     0.000     0.000     0.000     0.085     0.000     0.086    96.698     9.450    12.200     6.700    12.560    12.030     0.000     0.000    12.556   186.917    0.0000   12.5649   12.5571   12.5014    0.3322    0.4171    0.4530    0.0000    0.0000    0.0000    0.0000   17.7121   17.7121  186.9172
CORN    1 000010001    1    0  125.61900E-01     0.000     0.000     0.000     0.000     4.373     2.179   451.546   449.306     0.000     0.017     0.001     0.087     0.000     0.000   947.848  2000.085     0.000     0.000     0.000     0.085     0.000     0.086    96.688    10.000    14.400     5.600    12.326    21.423     0.000     0.000    12.317   188.657    0.0000   12.3420   12.3551   12.3758    0.3247    0.4170    0.4530    0.0000    0.0000    0.0000    0.0000   17.6356   17.6356  188.6569
CORN    1 000010001    1    0  126.61900E-01     1.000     0.000     0.000     0.000     0.772     0.378   449.306   449.868     0.000     0.017     0.001     0.015     0.000     0.000   947.848  2000.085     0.000     0.000     0.000     0.084     0.000     0.085    96.603     8.600    13.900     3.300    11.478     8.984     0.000     0.000    11.411   192.485    0.0000   11.5970   11.7167   12.0127    0.3319    0.4169    0.4530    0.0000    0.0000    0.0000    0.0000   17.4677   17.4677  192.4851
CORN    1 000010001    1    0  127.61900E-01     0.500     0.000     0.000     0.000     0.918     0.449   449.868   449.858     0.000     0.016     0.001     0.018     0.000     0.000   947.845  2000.085     0.000     0.000     0.000     0.084     0.000     0.085    96.624     7.750    16.100    -0.600    10.783    11.342     0.000     0.000    10.691   192.295    0.0000   10.9463   11.1208   11.5855    0.3315    0.4169    0.4530    0.0000    0.0000    0.0000    0.0000   17.4761   17.4761  192.2948
CORN    1 000010001    1    0  128.61900E-01     0.000     0.000     0.000     0.000     4.001     1.989   449.858   447.808     0.000     0.016     0.001     0.080     0.000     0.000   947.780  2000.085     0.000     0.000     0.000     0.083     0.000     0.084    96.624    13.900    20.600     7.200    11.202    24.003     0.000     0.000    11.177   193.870    0.0000   11.2512   11.3173   11.5314    0.3225    0.4153    0.4530    0.0000    0.0000    0.0000    0.0000   17.4072   17.4072  193.8698
CORN    1 000010001    1    0  129.61900E-01     0.000     0.000     0.000     0.000     6.399     3.198   447.808   444.550     0.000     0.015     0.001     0.128     0.000     0.000   947.666  2000.085     0.000     0.000     0.000     0.083     0.000     0.084    96.545    14.150    23.900     4.400    11.643    20.680     0.000     0.000    11.650   200.202    0.0000   11.6334   11.6323   11.6573    0.3094    0.4084    0.4529    0.0000    0.0000    0.0000    0.0000   17.1317   17.1317  200.2024
CORN    1 000010001    1    0  130.61900E-01     0.000     0.000     0.000     0.000     3.914     1.950   444.550   442.539     0.000     0.015     0.001     0.078     0.000     0.000   947.602  2000.085     0.000     0.000     0.000     0.082     0.000     0.083    96.416    12.500    18.900     6.100    11.869    23.623     0.000     0.000    11.882   210.269    0.0000   11.8465   11.8269   11.7873    0.3026    0.4012    0.4529    0.0000    0.0000    0.0000    0.0000   16.6983   16.6983  210.2688
CORN    1 000010001    1    0  131.61900E-01     5.800     0.000     0.000     0.000     2.675     1.329   442.539   446.950     0.000     0.014     0.001     0.053     0.000     0.000   947.562  2000.085     0.000     0.000     0.000     0.082     0.000     0.083    96.334    10.800    12.200     9.400    11.782    14.525     0.000     0.000    11.777   198.562    0.0000   11.7885   11.7948   11.8102    0.3274    0.4143    0.4530    0.0000    0.0000    0.0000    0.0000   17.2029   17.2029  198.5619
CORN    1 000010001    1    0  132.61900E-01    18.500     0.000     0.000     0.000     2.769     1.355   446.950   452.011     0.388     0.026     0.001     0.055     0.000     0.000   947.531  2000.085     4.425     3.322     0.000     0.085     0.000     6.478    96.511    16.650    21.100    12.200    12.435    24.898     0.183     0.329    12.491   161.168    3.0695   12.3484   12.2641   12.0569    0.3337    0.4171    0.4530    0.0002    0.0000    0.1808    0.2118   18.8643   15.7948  161.1678
CORN    1 000010001    1    0  133.61900E-01     0.000     0.000     0.000     0.000     6.287     3.129   452.011   448.822     0.000     0.025     0.001     0.126     0.000     0.000   947.430  2000.086     0.000     0.828     0.000     0.085     0.000     0.914    96.705    19.150    23.300    15.000    13.205    25.686     0.000     0.000    13.285   187.218    0.0000   13.0526   12.8893   12.4601    0.3245    0.4170    0.4529    0.0000    0.0000    0.0000    0.0528   17.6989   17.6989  187.2179
CORN    1 000010001    1    0  134.61900E-01    17.800     0.000     0.000     0.000     1.720     0.842   448.822   452.525     0.300     0.034     0.002     0.034     0.000     0.000   947.428  2000.087     5.466     4.310     0.000     0.088     0.000     7.566    96.584    17.500    25.000    10.000    13.951    14.614     0.271     0.191    14.067   160.478    3.1672   13.7458   13.5244   12.9283    0.3337    0.4171    0.4530    0.0002    0.0000    0.1616    0.2735   18.8957   15.7285  160.4780
SOYB    1 000010001    1    0  135.61900E-01     5.800     0.000     0.000     0.000     2.175     1.082   452.525   452.285     0.090     0.036     0.002     0.043     0.000     0.000   947.418  2000.087     0.381     1.360     0.000     0.090     0.000     3.339    96.724    12.750    18.300     7.200    13.499     4.531     0.000     0.028    13.536   169.514    1.8875   13.4216   13.3197   12.9984    0.3337    0.4171    0.4530    0.0002    0.0000    0.0487    0.0790   18.4869   16.5994  169.5143
SOYB    1 000010001    1    0  136.61900E-01     0.000     0.000     0.000     0.000     3.235     1.634   452.285   450.591     0.000     0.035     0.002     0.065     0.000     0.000   947.386  2000.088     0.000     0.339     0.000     0.090     0.000     0.429    96.715     6.650    10.000     3.300    12.783    21.819     0.000     0.000    12.770   186.372    0.0000   12.8027   12.8095   12.7839    0.3299    0.4171    0.4530    0.0000    0.0000    0.0000    0.0197   17.7362   17.7362  186.3722
SOYB    1 000010001    1    0  137.61900E-01     0.000     0.000     0.000     0.000     2.993     1.541   450.591   448.990     0.000     0.034     0.002     0.060     0.000     0.000   947.358  2000.089     0.000     0.084     0.000     0.089     0.000     0.174    96.652     5.550    11.700    -0.600    12.081    23.214     0.000     0.000    12.034   191.606    0.0000   12.1651   12.2472   12.4402    0.3234    0.4171    0.4530    0.0000    0.0000    0.0000    0.0049   17.5062   17.5062  191.6060
SOYB    1 000010001    1    0  138.61900E-01     0.000     0.000     0.000     0.000     4.777     2.442   448.990   446.487     0.000     0.032     0.002     0.096     0.000     0.000   947.293  2000.089     0.000     0.021     0.000     0.088     0.000     0.110    96.591    11.100    17.200     5.000    12.046    21.897     0.000     0.000    12.022   196.553    0.0000   12.0893   12.1384   12.2733    0.3137    0.4138    0.4530    0.0000    0.0000    0.0000    0.0012   17.2902   17.2902  196.5531
SOYB    1 000010001    1    0  139.61900E-01     4.300     0.000     0.000     0.000     0.836     0.420   446.487   450.306     0.000     0.031     0.002     0.017     0.000     0.000   947.307  2000.090     0.000     0.005     0.000     0.088     0.000     0.094    96.493    11.350    14.400     8.300    11.875     6.809     0.000     0.000    11.845   191.000    0.0000   11.9273   11.9833   12.1330    0.3318    0.4171    0.4530    0.0000    0.0000    0.0000    0.0003   17.5327   17.5327  191.0002
SOYB    1 000010001    1    0  140.61900E-01     0.000     0.000     0.000     0.000     3.656     1.809   450.306   448.437     0.000     0.030     0.002     0.073     0.000     0.000   947.262  2000.091     0.000     0.001     0.000     0.087     0.000     0.089    96.641    11.100    18.300     3.900    11.883    20.678     0.000     0.000    11.865   192.486    0.0000   11.9150   11.9530   12.0630    0.3236    0.4167    0.4530    0.0000    0.0000    0.0000    0.0001   17.4677   17.4677  192.4861
SOYB    1 000010001    1    0  141.61900E-01     0.000     0.000     0.000     0.000     6.801     3.342   448.437   445.034     0.000     0.029     0.001     0.136     0.000     0.000   947.154  2000.091     0.000     0.000     0.000     0.087     0.000     0.088    96.569    15.300    20.000    10.600    12.363    23.804     0.000     0.000    12.390   198.260    0.0000   12.3217   12.2833   12.2000    0.3097    0.4110    0.4530    0.0000    0.0000    0.0000    0.0000   17.2160   17.2160  198.2603
SOYB    1 000010001    1    0  142.61900E-01     3.600     0.000     0.000     0.000     1.939     0.958   445.034   447.616     0.000     0.029     0.001     0.039     0.000     0.000   947.143  2000.092     0.000     0.000     0.000     0.086     0.000     0.087    96.435    16.150    20.600    11.700    13.056    14.622     0.000     0.000    13.133   197.651    0.0000   12.9369   12.8159   12.5115    0.3292    0.4153    0.4530    0.0000    0.0000    0.0000    0.0000   17.2425   17.2425  197.6506
SOYB    1 000010001    1    0  143.61900E-01     0.500     0.000     0.000     0.000     2.179     1.074   447.616   446.982     0.000     0.028     0.001     0.044     0.000     0.000   947.125  2000.092     0.000     0.000     0.000     0.085     0.000     0.086    96.537    12.200    18.300     6.100    12.898     8.578     0.000     0.000    12.929   199.251    0.0000   12.8470   12.7856   12.6013    0.3275    0.4146    0.4530    0.0000    0.0000    0.0000    0.0000   17.1730   17.1730  199.2507
SOYB    1 000010001    1    0  144.61900E-01     0.000     0.000     0.000     0.000     4.113     2.052   446.982   444.869     0.000     0.027     0.001     0.082     0.000     0.000   947.068  2000.092     0.000     0.000     0.000     0.085     0.000     0.086    96.512    14.450    22.200     6.700    13.215    21.113     0.000     0.000    13.274   202.756    0.0000   13.1240   13.0271   12.7623    0.3186    0.4083    0.4530    0.0000    0.0000    0.0000    0.0000   17.0213   17.0213  202.7556
SOYB    1 000010001    1    0  145.61900E-01     0.000     0.000     0.000     0.000     7.426     3.671   444.869   441.138     0.000     0.026     0.001     0.149     0.000     0.000   946.944  2000.093     0.000     0.000     0.000     0.084     0.000     0.085    96.429    16.950    23.900    10.000    13.763    23.238     0.000     0.000    13.861   209.281    0.0000   13.6157   13.4607   13.0452    0.3043    0.3938    0.4530    0.0000    0.0000    0.0000    0.0000   16.7406   16.7406  209.2809
SOYB    1 000010001    1    0  146.61900E-01     0.000     0.000     0.000     0.000     4.826     2.416   441.138   438.662     0.000     0.025     0.001     0.097     0.000     0.000   946.872  2000.093     0.000     0.000     0.000     0.084     0.000     0.085    96.276    20.300    26.700    13.900    14.688    19.989     0.000     0.000    14.852   220.808    0.0000   14.4422   14.1885   13.5214    0.2964    0.3855    0.4524    0.0000    0.0000    0.0000    0.0000   16.2504   16.2504  220.8083
SOYB    1 000010001    1    0  147.61900E-01     0.000     0.000     0.000     0.000     7.671     3.853   438.662   434.750     0.000     0.024     0.001     0.153     0.000     0.000   946.741  2000.093     0.000     0.000     0.000     0.083     0.000     0.084    96.172    22.800    27.800    17.800    15.720    21.981     0.000     0.000    15.941   228.457    0.0000   15.3864   15.0417   14.1321    0.2850    0.3732    0.4509    0.0000    0.0000    0.0000    0.0000   15.9291   15.9291  228.4568
SOYB    1 000010001    1    0  148.61900E-01     0.000     0.000     0.000     0.000     9.883     4.913   434.750   429.776     0.000     0.024     0.001     0.198     0.000     0.000   946.566  2000.093     0.000     0.000     0.000     0.083     0.000     0.084    96.003    21.400    26.700    16.100    16.454    23.877     0.000     0.000    16.696   240.544    0.0000   16.0896   15.7109   14.7029    0.2722    0.3591    0.4482    0.0000    0.0000    0.0000    0.0000   15.4278   15.4278  240.5444
SOYB    1 000010001    1    0  149.61900E-01     0.000     0.000     0.000     0.000    10.128     5.001   429.776   424.716     0.000     0.023     0.001     0.203     0.000     0.000   946.385  2000.094     0.000     0.000     0.000     0.082     0.000     0.083    95.779    23.900    30.000    17.800    17.324    25.809     0.000     0.000    17.611   255.909    0.0000   16.8938   16.4561   15.3071    0.2608    0.3465    0.4446    0.0000    0.0000    0.0000    0.0000   14.8020   14.8020  255.9089
SOYB    1 000010001    1    0  150.61900E-01     0.000     0.000     0.000     0.000     5.922     2.703   424.716   421.952     0.000     0.022     0.001     0.118     0.000     0.000   946.288  2000.094     0.000     0.000     0.000     0.082     0.000     0.083    95.540    23.300    28.300    18.300    18.088    23.741     0.000     0.000    18.407   274.591    0.0000   17.6138   17.1376   15.8951    0.2548    0.3398    0.4426    0.0000    0.0000    0.0000    0.0000   14.0583   14.0583  274.5909
SOYB    1 000010001    1    0  151.61900E-01    22.100     0.000     0.000     0.000     2.287     1.169   421.952   442.824     0.000     0.021     0.001     0.046     0.000     0.000   946.262  2000.094     0.000     0.000     0.000     0.081     0.000     0.082    95.406    22.200    29.400    15.000    18.762    15.960     0.000     0.000    19.101   203.206    0.0000   18.2588   17.7573   16.4516    0.3283    0.4121    0.4530    0.0000    0.0000    0.0000    0.0000   17.0019   17.0019  203.2056
SOYB    1 000010001    1    0  152.61900E-01     0.000     0.000     0.000     0.000     6.178     3.096   442.824   439.668     0.000     0.021     0.001     0.124     0.000     0.000   946.158  2000.094     0.000     0.000     0.000     0.081     0.000     0.082    96.346    21.950    28.900    15.000    19.239    21.239     0.000     0.000    19.575   207.001    0.0000   18.7687   18.3027   16.9739    0.3147    0.3993    0.4527    0.0000    0.0000    0.0000    0.0000   16.8384   16.8384  207.0011
SOYB    1 000010001    1    0  153.61900E-01     0.000     0.000     0.000     0.000     8.197     4.103   439.668   435.505     0.000     0.020     0.001     0.164     0.000     0.000   946.013  2000.094     0.000     0.000     0.000     0.081     0.000     0.082    96.215    24.150    30.000    18.300    19.848    26.545     0.000     0.000    20.206   216.752    0.0000   19.3469   18.8571   17.4798    0.2992    0.3842    0.4515    0.0000    0.0000    0.0000    0.0000   16.4221   16.4221  216.7520
SOYB    1 000010001    1    0  154.61900E-01     0.000     0.000     0.000     0.000     8.410     4.205   435.505   431.240     0.000     0.019     0.001     0.168     0.000     0.000   945.863  2000.094     0.000     0.000     0.000     0.080     0.000     0.081    96.036    23.600    30.000    17.200    20.349    24.691     0.000     0.000    20.718   229.612    0.0000   19.8306   19.3297   17.9378    0.2859    0.3708    0.4494    0.0000    0.0000    0.0000    0.0000   15.8809   15.8809  229.6121
SOYB    1 000010001    1    0  155.61900E-01     0.000     0.000     0.000     0.000     7.863     3.950   431.240   427.231     0.000     0.019     0.001     0.157     0.000     0.000   945.724  2000.094     0.000     0.000     0.000     0.080     0.000     0.081    95.846    23.050    28.300    17.800    20.740    25.571     0.000     0.000    21.115   242.787    0.0000   20.2155   19.7138   18.3341    0.2750    0.3597    0.4468    0.0000    0.0000    0.0000    0.0000   15.3357   15.3357  242.7872
SOYB    1 000010001    1    0  156.61900E-01     0.000     0.000     0.000     0.000     8.356     4.031   427.231   423.140     0.000     0.018     0.001     0.167     0.000     0.000   945.574  2000.094     0.000     0.000     0.000     0.079     0.000     0.080    95.660    23.050    28.900    17.200    21.084    26.006     0.000     0.000    21.466   255.175    0.0000   20.5525   20.0504   18.6838    0.2646    0.3490    0.4439    0.0000    0.0000    0.0000    0.0000   14.8317   14.8317  255.1746
[...]
CORN    1 000010001    1    0  327.61900E-01     0.000     0.000     0.000     0.000     1.016     0.550   413.311   412.719     0.000     0.000     0.000     0.020     0.000     0.000   819.404  2000.004     0.000     0.000     0.000     0.045     0.000     0.045    94.963     3.900     7.800     0.000     5.638     7.208     0.000     0.000     5.341   344.583    0.0000    6.0286    6.3492    7.2081    0.2655    0.4111    0.4521    0.0000    0.0000    0.0000    0.0000   11.4399   11.4399  344.5828
CORN    1 000010001    1    0  328.61900E-01     0.000     0.000     0.000     0.000     1.712     0.941   412.719   411.736     0.000     0.000     0.000     0.034     0.000     0.000   819.370  2000.004     0.000     0.000     0.000     0.045     0.000     0.045    94.932     4.150    10.000    -1.700     5.357     8.123     0.000     0.000     5.062   346.769    0.0000    5.7474    6.0719    6.9495    0.2635    0.4072    0.4515    0.0000    0.0000    0.0000    0.0000   11.3624   11.3624  346.7686
CORN    1 000010001    1    0  329.61900E-01     0.000     0.000     0.000     0.000     1.128     0.621   411.736   411.073     0.000     0.000     0.000     0.023     0.000     0.000   819.347  2000.004     0.000     0.000     0.000     0.045     0.000     0.045    94.879    -1.100     2.200    -4.400     4.046     9.286     0.000     0.000     3.595   350.397    0.0000    4.6382    5.1143    6.3492    0.2622    0.4047    0.4511    0.0000    0.0000    0.0000    0.0000   11.2343   11.2343  350.3971
CORN    1 000010001    1    0  330.61900E-01     4.000     4.000     4.000     0.000     0.116     0.063   411.073   414.968     0.000     0.000     0.000     0.002     0.000     0.000   819.345  2000.004     0.000     0.000     0.000     0.045     0.000     0.045    94.844     0.250     4.400    -3.900     2.955     5.338     0.000     0.000     2.437   338.077    0.0000    3.6363    4.1923    5.6496    0.2788    0.4168    0.4529    0.0000    0.0000    0.0000    0.0000   11.6721   11.6721  338.0767
CORN    1 000010001    1    0  331.61900E-01     0.000     0.000     0.000     0.000     2.487     1.362   414.968   413.564     0.000     0.000     0.000     0.050     0.000     0.000   819.295  2000.004     0.000     0.000     0.000     0.045     0.000     0.045    95.051     1.150     5.600    -3.300     2.550     6.112     0.000     0.000     2.068   338.464    0.0000    3.1785    3.6986    5.1238    0.2755    0.4108    0.4522    0.0000    0.0000    0.0000    0.0000   11.6582   11.6582  338.4639
CORN    1 000010001    1    0  332.61900E-01     0.000     0.000     0.000     0.000     0.859     0.465   413.564   413.057     0.000     0.000     0.000     0.017     0.000     0.000   819.278  2000.003     0.000     0.000     0.000     0.045     0.000     0.045    94.977    -5.250    -1.100    -9.400     0.918     8.798     0.000     0.000     0.264   343.647    0.0000    1.7674    2.4520    4.2662    0.2744    0.4089    0.4519    0.0000    0.0000    0.0000    0.0000   11.4731   11.4731  343.6472
CORN    1 000010001    1    0  333.61900E-01     0.000     0.000     0.000     0.000     1.164     0.639   413.057   412.376     0.000     0.000     0.000     0.023     0.000     0.000   819.254  2000.003     0.000     0.000     0.000     0.045     0.000     0.045    98.833    -6.400    -2.800   -10.000    -0.754     7.759     0.000     0.000    -1.524   343.647    0.0000    0.2484    1.0610    3.2191    0.2729    0.4063    0.4515    0.0000    0.0000    0.0000    0.0000    0.0000    0.0000  900.0000
CORN    1 000010001    1    0  334.61900E-01     0.000     0.000     0.000     0.000     2.160     1.184   412.376   411.151     0.000     0.000     0.000     0.043     0.000     0.000   819.211  2000.003     0.000     0.000     0.000     0.045     0.000     0.045    98.833    -1.400     4.400    -7.200    -0.770     8.526     0.000     0.000    -1.394   343.647    0.0000    0.0480    0.7383    2.6436    0.2701    0.4016    0.4507    0.0000    0.0000    0.0000    0.0000    0.0000    0.0000  900.0000
CORN    1 000010001    1    0  335.61900E-01     4.200     0.000     0.000     0.000     0.421     0.228   411.151   415.081     0.000     0.000     0.000     0.008     0.000     0.000   819.203  2000.003     0.000     0.000     0.000     0.044     0.000     0.045    94.848     6.150    11.700     0.600     2.044     4.036     0.000     0.000     1.901   337.053    0.0000    2.2489    2.4786    3.2730    0.2832    0.4161    0.4529    0.0000    0.0000    0.0000    0.0000   11.7089   11.7089  337.0529
CORN    1 000010001    1    0  336.61900E-01     0.200     0.000     0.000     0.000     0.232     0.126   415.081   415.189     0.000     0.000     0.000     0.005     0.000     0.000   819.198  2000.003     0.000     0.000     0.000     0.044     0.000     0.044    95.057     6.650     9.400     3.900     3.453     6.655     0.000     0.000     3.412   337.031    0.0000    3.5326    3.6320    4.0177    0.2832    0.4165    0.4529    0.0000    0.0000    0.0000    0.0000   11.7097   11.7097  337.0312
CORN    1 000010001    1    0  337.61900E-01     0.000     0.000     0.000     0.000     1.263     0.693   415.189   414.550     0.000     0.000     0.000     0.025     0.000     0.000   819.173  2000.003     0.000     0.000     0.000     0.044     0.000     0.044    95.062     5.250     9.400     1.100     4.267     3.776     0.000     0.000     4.233   337.295    0.0000    4.3186    4.3825    4.6313    0.2814    0.4135    0.4527    0.0000    0.0000    0.0000    0.0000   11.7002   11.7002  337.2952
CORN    1 000010001    1    0  338.61900E-01     0.000     0.000     0.000     0.000     1.123     0.625   414.550   413.884     0.000     0.000     0.000     0.022     0.000     0.000   819.150  2000.003     0.000     0.000     0.000     0.044     0.000     0.044    95.029     3.300     7.200    -0.600     4.045     5.445     0.000     0.000     3.901   340.008    0.0000    4.2350    4.3945    4.8473    0.2798    0.4109    0.4524    0.0000    0.0000    0.0000    0.0000   11.6029   11.6029  340.0081
CORN    1 000010001    1    0  339.61900E-01     1.500     1.500     1.500     0.000     0.135     0.073   413.884   415.269     0.000     0.000     0.000     0.003     0.000     0.000   819.148  2000.003     0.000     0.000     0.000     0.044     0.000     0.044    94.994     1.900     4.400    -0.600     3.508     6.226     0.000     0.000     3.268   336.931    0.0000    3.8223    4.0782    4.7729    0.2851    0.4168    0.4529    0.0000    0.0000    0.0000    0.0000   11.7133   11.7133  336.9305
CORN    1 000010001    1    0  340.61900E-01     0.000     0.000     0.000     0.000     1.024     0.554   415.269   414.673     0.000     0.000     0.000     0.020     0.000     0.000   819.127  2000.002     0.000     0.000     0.000     0.044     0.000     0.044    95.066    -0.550     2.200    -3.300     2.583     7.704     0.000     0.000     2.224   337.354    0.0000    3.0479    3.4212    4.4238    0.2836    0.4143    0.4527    0.0000    0.0000    0.0000    0.0000   11.6981   11.6981  337.3540
CORN    1 000010001    1    0  341.61900E-01     0.000     0.000     0.000     0.000     0.538     0.292   414.673   414.340     0.000     0.000     0.000     0.011     0.000     0.000   819.116  2000.002     0.000     0.000     0.000     0.044     0.000     0.044    95.035     0.550     4.400    -3.300     1.988     4.602     0.000     0.000     1.596   339.554    0.0000    2.4973    2.9139    4.0510    0.2829    0.4131    0.4526    0.0000    0.0000    0.0000    0.0000   11.6192   11.6192  339.5542
CORN    1 000010001    1    0  342.61900E-01     0.000     0.000     0.000     0.000     0.995     0.548   414.340   413.751     0.000     0.000     0.000     0.020     0.000     0.000   819.097  2000.002     0.000     0.000     0.000     0.044     0.000     0.044    95.018     5.550    10.000     1.100     3.486     3.871     0.000     0.000     3.367   340.784    0.0000    3.6513    3.8209    4.3827    0.2815    0.4107    0.4523    0.0000    0.0000    0.0000    0.0000   11.5752   11.5752  340.7836
CORN    1 000010001    1    0  343.61900E-01     8.100     0.000     0.000     0.000     0.071     0.038   413.751   421.771     0.000     0.000     0.000     0.001     0.000     0.000   819.095  2000.002     0.000     0.000     0.000     0.044     0.000     0.044    94.987     9.200    12.800     5.600     6.630     1.968     0.000     0.000     6.909   313.056    0.0000    6.2876    6.0643    5.6322    0.3335    0.4169    0.4530    0.0000    0.0000    0.0000    0.0000   12.5866   12.5866  313.0555
CORN    1 000010001    1    0  344.61900E-01     0.000     0.000     0.000     0.000     0.784     0.425   421.771   421.305     0.000     0.000     0.000     0.016     0.000     0.000   819.079  2000.002     0.000     0.000     0.000     0.044     0.000     0.044    95.397     6.950    13.900     0.000     6.811     6.579     0.000     0.000     6.895   313.350    0.0000    6.6964    6.5927    6.3320    0.3315    0.4151    0.4530    0.0000    0.0000    0.0000    0.0000   12.5756   12.5756  313.3502
CORN    1 000010001    1    0  345.61900E-01     0.300     0.300     0.000     0.000     0.137     0.074   421.305   421.263     0.000     0.000     0.000     0.003     0.000     0.000   819.077  2000.002     0.000     0.000     0.000     0.044     0.000     0.044    95.374     0.550     2.200    -1.100     3.610     2.251     0.000     0.000     3.247   315.071    0.0000    4.0934    4.5043    5.5362    0.3315    0.4151    0.4530    0.0000    0.0000    0.0000    0.0000   12.5117   12.5117  315.0706
CORN    1 000010001    1    0  346.61900E-01     0.000     0.000     0.000     0.000     0.744     0.403   421.263   420.819     0.000     0.000     0.000     0.015     0.000     0.000   819.062  2000.002     0.000     0.000     0.000     0.044     0.000     0.044    95.371    -1.650     1.100    -4.400     0.125     6.330     0.000     0.000    -0.528   315.223    0.0000    1.0075    1.8028    3.9200    0.3296    0.4133    0.4529    0.0000    0.0000    0.0000    0.0000   12.5060   12.5060  315.2231
CORN    1 000010001    1    0  347.61900E-01     0.000     0.000     0.226     0.000     1.254     0.679   420.819   420.325     0.000     0.000     0.000     0.025     0.000     0.000   819.037  2000.002     0.000     0.000     0.000     0.044     0.000     0.044    95.349     0.550     7.800    -6.700     0.577     6.276     0.000     0.000     0.181   316.029    0.0000    1.1311    1.6841    3.3103    0.3266    0.4125    0.4529    0.0000    0.0000    0.0000    0.0000   12.4761   12.4761  316.0291
CORN    1 000010001    1    0  348.61900E-01     0.000     0.000     0.000     0.000     0.907     0.491   420.325   419.793     0.000     0.000     0.000     0.018     0.000     0.000   819.019  2000.001     0.000     0.000     0.000     0.044     0.000     0.044    95.325    -0.550     5.000    -6.100     0.372     6.304     0.000     0.000    -0.011   318.688    0.0000    0.9020    1.4209    2.9293    0.3245    0.4104    0.4529    0.0000    0.0000    0.0000    0.0000   12.3778   12.3778  318.6880
CORN    1 000010001    1    0  349.61900E-01     0.000     0.000     0.000     0.000     1.918     1.052   419.793   418.700     0.000     0.000     0.000     0.038     0.000     0.000   818.980  2000.001     0.000     0.000     0.000     0.044     0.000     0.044    95.298     1.350     8.300    -5.600     0.766     6.397     0.000     0.000     0.468   320.652    0.0000    1.1824    1.6015    2.8520    0.3201    0.4060    0.4527    0.0000    0.0000    0.0000    0.0000   12.3054   12.3054  320.6523
CORN    1 000010001    1    0  350.61900E-01     0.000     0.000     0.000     0.000     1.385     0.767   418.700   417.906     0.000     0.000     0.000     0.028     0.000     0.000   818.953  2000.001     0.000     0.000     0.000     0.044     0.000     0.044    95.243     5.000    12.200    -2.200     2.384     4.645     0.000     0.000     2.283   324.633    0.0000    2.5356    2.7207    3.3620    0.3170    0.4030    0.4525    0.0000    0.0000    0.0000    0.0000   12.1592   12.1592  324.6331
CORN    1 000010001    1    0  351.61900E-01     6.100     0.000     0.000     0.000     0.000     0.000   417.906   423.964     0.000     0.000     0.000     0.000     0.000     0.000   818.953  2000.001     0.000     0.000     0.000     0.044     0.000     0.044    95.202     6.950    11.100     2.800     5.436     1.192     0.000     0.000     5.634   305.099    0.0000    5.1820    5.0019    4.6768    0.3337    0.4171    0.4530    0.0000    0.0000    0.0000    0.0000   12.8845   12.8845  305.0986
CORN    1 000010001    1    0  352.61900E-01     0.300     0.000     0.000     0.000     0.246     0.133   423.964   424.090     0.000     0.000     0.000     0.005     0.000     0.000   818.948  2000.001     0.000     0.000     0.000     0.044     0.000     0.044    95.504     4.700     9.400     0.000     5.164     3.147     0.000     0.000     5.158   304.143    0.0000    5.1698    5.1764    5.2116    0.3330    0.4167    0.4530    0.0000    0.0000    0.0000    0.0000   12.9205   12.9205  304.1431
CORN    1 000010001    1    0  353.61900E-01     0.000     0.000     0.000     0.000     0.862     0.466   424.090   423.582     0.000     0.000     0.000     0.017     0.000     0.000   818.930  2000.001     0.000     0.000     0.000     0.043     0.000     0.044    95.510    -1.400     2.200    -5.000     3.185     5.958     0.000     0.000     2.949   304.787    0.0000    3.5265    3.8650    4.7528    0.3309    0.4150    0.4530    0.0000    0.0000    0.0000    0.0000   12.8962   12.8962  304.7871
CORN    1 000010001    1    0  354.61900E-01     0.000     0.000     0.000     0.000     0.348     0.188   423.582   423.353     0.000     0.000     0.000     0.007     0.000     0.000   818.923  2000.001     0.000     0.000     0.000     0.043     0.000     0.044    95.485    -1.650     1.100    -4.400     1.874     6.863     0.000     0.000     1.572   306.661    0.0000    2.3215    2.7884    4.0764    0.3300    0.4143    0.4530    0.0000    0.0000    0.0000    0.0000   12.8257   12.8257  306.6606
CORN    1 000010001    1    0  355.61900E-01     0.000     0.000     0.000     0.000     0.740     0.401   423.353   422.911     0.000     0.000     0.000     0.015     0.000     0.000   818.909  2000.001     0.000     0.000     0.000     0.043     0.000     0.043    95.474     1.700     6.700    -3.300     1.883     6.085     0.000     0.000     1.650   307.508    0.0000    2.2360    2.6271    3.7709    0.3282    0.4128    0.4530    0.0000    0.0000    0.0000    0.0000   12.7939   12.7939  307.5076
CORN    1 000010001    1    0  356.61900E-01     0.600     0.000     0.000     0.000     0.145     0.079   422.911   423.392     0.000     0.000     0.000     0.003     0.000     0.000   818.906  2000.000     0.000     0.000     0.000     0.043     0.000     0.043    95.453     5.250     8.300     2.200     2.980     6.089     0.000     0.000     2.876   306.923    0.0000    3.1435    3.3502    4.0255    0.3296    0.4168    0.4530    0.0000    0.0000    0.0000    0.0000   12.8159   12.8159  306.9227
CORN    1 000010001    1    0  357.61900E-01     4.700     0.000     0.000     0.000     0.062     0.034   423.392   428.017     0.000     0.000     0.000     0.001     0.000     0.000   818.904  2000.000     0.000     0.000     0.000     0.043     0.000     0.043    95.476     6.100     7.800     4.400     4.565     2.708     0.000     0.000     4.585   290.013    0.0000    4.5461    4.5623    4.7191    0.3335    0.4171    0.4530    0.0000    0.0000    0.0000    0.0000   13.4586   13.4586  290.0133
CORN    1 000010001    1    0  358.61900E-01     0.000     0.000     0.000     0.000     1.953     1.071   428.017   426.905     0.000     0.000     0.000     0.039     0.000     0.000   818.865  2000.000     0.000     0.000     0.000     0.043     0.000     0.043    95.697     6.400     7.800     5.000     5.115     7.342     0.000     0.000     5.115   290.289    0.0000    5.1186    5.1386    5.2497    0.3292    0.4171    0.4530    0.0000    0.0000    0.0000    0.0000   13.4480   13.4480  290.2889
CORN    1 000010001    1    0  359.61900E-01     0.600     0.000     0.000     0.000     0.092     0.050   426.905   427.414     0.000     0.000     0.000     0.002     0.000     0.000   818.864  2000.000     0.000     0.000     0.000     0.043     0.000     0.043    95.645     9.450    11.700     7.200     7.137     3.040     0.000     0.000     7.278   292.179    0.0000    6.9265    6.7220    6.2586    0.3334    0.4171    0.4530    0.0000    0.0000    0.0000    0.0000   13.3754   13.3754  292.1794
CORN    1 000010001    1    0  360.61900E-01     4.100     0.000     0.000     0.000     0.043     0.023   427.414   431.101     0.320     0.010     0.001     0.001     0.000     0.000   818.872  2000.000     0.000     0.000     0.000     0.044     0.000     0.044    95.669    11.350    14.400     8.300     9.481     1.967     0.000     0.000     9.737   278.666    0.0000    9.0902    8.6786    7.6306    0.3337    0.4171    0.4530    0.0000    0.0000    0.0000    0.0000   13.8986   13.8986  278.6658
CORN    1 000010001    1    0  361.61900E-01     0.300     0.000     0.000     0.000     0.039     0.021   431.101   431.329     0.002     0.010     0.000     0.001     0.000     0.000   818.881  2000.001     0.000     0.000     0.000     0.044     0.000     0.044    95.840     6.650    12.200     1.100     7.685     1.509     0.000     0.000     7.661   277.832    0.0000    7.7200    7.7255    7.6563    0.3337    0.4171    0.4530    0.0000    0.0000    0.0000    0.0000   13.9312   13.9312  277.8325
CORN    1 000010001    1    0  362.61900E-01     6.200     0.000     0.000     0.000     0.704     0.381   431.329   435.931     0.002     0.010     0.000     0.014     0.000     0.000   818.876  2000.001     1.044     0.783     0.000     0.047     0.000     0.830    95.850     5.300     8.900     1.700     6.950     6.271     0.031     0.021     6.896   259.514    0.0000    7.0562    7.1663    7.4436    0.3337    0.4171    0.4530    0.0000    0.0000    0.0000    0.0148   14.6571   14.6571  259.5137
CORN    1 000010001    1    0  363.61900E-01     0.000     0.000     0.000     0.000     0.867     0.469   435.931   435.416     0.000     0.009     0.000     0.017     0.000     0.000   818.868  2000.002     0.000     0.195     0.000     0.047     0.000     0.242    96.055     3.350     6.100     0.600     5.842     6.092     0.000     0.000     5.724   261.092    0.0000    6.0700    6.3187    6.9819    0.3334    0.4171    0.4530    0.0000    0.0000    0.0000    0.0037   14.5938   14.5938  261.0920
CORN    1 000010001    1    0  364.61900E-01     0.300     0.300     0.000     0.000     0.860     0.465   435.416   435.204     0.000     0.009     0.000     0.017     0.000     0.000   818.859  2000.002     0.000     0.049     0.000     0.047     0.000     0.095    96.032     1.100     2.200     0.000     3.568     2.778     0.000     0.000     3.320   262.995    0.0000    4.0459    4.5656    5.9531    0.3332    0.4171    0.4530    0.0000    0.0000    0.0000    0.0009   14.5177   14.5177  262.9954
CORN    1 000010001    1    0  365.61900E-01     1.100     1.100     1.100     0.000     0.000     0.000   435.204   436.174     0.084     0.011     0.001     0.000     0.000     0.000   818.870  2000.002     0.000     0.012     0.000     0.046     0.000     0.059    96.023     1.950     3.900     0.000     2.436     0.605     0.000     0.000     2.184   260.024    0.0000    2.9280    3.4883    5.0568    0.3337    0.4171    0.4530    0.0000    0.0000    0.0000    0.0002   14.6366   14.6366  260.0244
