1
    SWAT Jan 13 2025   VER kalcic-nifafrozen                                                             0/ 0/   0      0: 0: 0

    General Input/Output section (file.cio):                                        
    8/10/2023 12:00:00 AM ARCGIS-SWAT interface AV                                  
                                                                                    
         Number of years in run:   11
         Area of watershed:        0.062 km2
1
    SWAT Jan 13 2025   VER kalcic-nifafrozen                                        

    General Input/Output section (file.cio):                                        
    8/10/2023 12:00:00 AM ARCGIS-SWAT interface AV                                  
                                                                                    
Annual Summary for Watershed in year    1 of simulation

UNIT                                    PERCO    TILE                           WATER     SED     NO3     NO3     NO3     NO3        N       P       P
TIME     PREC    SURQ    LATQ     GWQ    LATE       Q     SW       ET     PET   YIELD   YIELD    SURQ    LATQ    PERC    CROP  ORGANIC SOLUBLE ORGANIC TILENO3
         (mm)    (mm)    (mm)    (mm)    (mm)    (mm)    (mm)    (mm)    (mm)    (mm)   (t/ha)  ------------------(kg nutrient/ha)-------------------- (kg/ha)
1
    SWAT Jan 13 2025   VER kalcic-nifafrozen                                        

    General Input/Output section (file.cio):                                        
    8/10/2023 12:00:00 AM ARCGIS-SWAT interface AV                                  
                                                                                    
Annual Summary for Watershed in year    2 of simulation

UNIT                                    PERCO    TILE                           WATER     SED     NO3     NO3     NO3     NO3        N       P       P
TIME     PREC    SURQ    LATQ     GWQ    LATE       Q     SW       ET     PET   YIELD   YIELD    SURQ    LATQ    PERC    CROP  ORGANIC SOLUBLE ORGANIC TILENO3
         (mm)    (mm)    (mm)    (mm)    (mm)    (mm)    (mm)    (mm)    (mm)    (mm)   (t/ha)  ------------------(kg nutrient/ha)-------------------- (kg/ha)
1
    SWAT Jan 13 2025   VER kalcic-nifafrozen                                        

    General Input/Output section (file.cio):                                        
    8/10/2023 12:00:00 AM ARCGIS-SWAT interface AV                                  
                                                                                    
Annual Summary for Watershed in year    3 of simulation

UNIT                                    PERCO    TILE                           WATER     SED     NO3     NO3     NO3     NO3        N       P       P
TIME     PREC    SURQ    LATQ     GWQ    LATE       Q     SW       ET     PET   YIELD   YIELD    SURQ    LATQ    PERC    CROP  ORGANIC SOLUBLE ORGANIC TILENO3
         (mm)    (mm)    (mm)    (mm)    (mm)    (mm)    (mm)    (mm)    (mm)    (mm)   (t/ha)  ------------------(kg nutrient/ha)-------------------- (kg/ha)
1
    SWAT Jan 13 2025   VER kalcic-nifafrozen                                        

    General Input/Output section (file.cio):                                        
    8/10/2023 12:00:00 AM ARCGIS-SWAT interface AV                                  
                                                                                    
Annual Summary for Watershed in year    4 of simulation

UNIT                                    PERCO    TILE                           WATER     SED     NO3     NO3     NO3     NO3        N       P       P
TIME     PREC    SURQ    LATQ     GWQ    LATE       Q     SW       ET     PET   YIELD   YIELD    SURQ    LATQ    PERC    CROP  ORGANIC SOLUBLE ORGANIC TILENO3
         (mm)    (mm)    (mm)    (mm)    (mm)    (mm)    (mm)    (mm)    (mm)    (mm)   (t/ha)  ------------------(kg nutrient/ha)-------------------- (kg/ha)
    1    0.00    0.00    0.08    0.00    0.00    0.00  451.18    0.53    1.06    0.35    0.00    0.00    0.00    0.00    0.00     0.04    0.00    0.00    0.00
    2    0.00    0.00    0.08    0.00    0.00    0.00  450.64    0.48    0.95    0.15    0.00    0.00    0.00    0.00    0.00     0.01    0.00    0.00    0.00
    3    0.00    0.00    0.08    0.00    0.00    0.00  449.99    0.59    1.18    0.10    0.00    0.00    0.00    0.00    0.00     0.00    0.00    0.00    0.00
    4    0.30    0.00    0.08    0.00    0.00    0.00  449.88    0.05    0.11    0.08    0.00    0.00    0.00    0.00    0.00     0.00    0.00    0.00    0.00
    5    0.00    0.00    0.08    0.00    0.00    0.00  449.77    0.05    0.09    0.08    0.00    0.00    0.00    0.00    0.00     0.00    0.00    0.00    0.00
    6    0.00    0.00    0.08    0.00    0.00    0.00  449.37    0.34    0.69    0.08    0.00    0.00    0.00    0.00    0.00     0.00    0.00    0.00    0.00
    7    0.00    0.00    0.08    0.00    0.00    0.00  449.14    0.18    0.36    0.08    0.00    0.00    0.00    0.00    0.00     0.00    0.00    0.00    0.00
    8    0.50    0.00    0.08    0.00    0.00    0.00  449.66    0.22    0.45    0.08    0.00    0.00    0.00    0.00    0.00     0.00    0.00    0.00    0.00
    9   10.20    0.72    0.08    0.00    0.27    2.52  453.09    0.28    0.53    3.15    0.02    0.00    0.00    0.00    0.00     0.05    0.00    0.01    0.00
   10   23.90   15.85    0.09    0.00    0.01    4.81  453.09    0.28    0.57   16.93    0.74    0.00    0.00    0.00    0.00     1.67    0.00    0.20    0.00
   11    1.50    0.00    0.08    0.00    0.00    0.00  453.03    0.00    0.00    3.09    0.00    0.00    0.00    0.00    0.00     0.42    0.00    0.05    0.00
   12    2.50    0.00    0.08    0.00    0.00    0.00  452.76    0.21    0.42    0.83    0.00    0.00    0.00    0.00    0.00     0.10    0.00    0.01    0.00
   13    1.00    0.00    0.08    0.00    0.00    0.00  452.70    0.00    0.00    0.27    0.00    0.00    0.00    0.00    0.00     0.03    0.00    0.00    0.00
   14    0.50    0.00    0.08    0.00    0.00    0.00  452.46    0.17    0.35    0.13    0.00    0.00    0.00    0.00    0.00     0.01    0.00    0.00    0.00
   15    0.00    0.00    0.08    0.00    0.00    0.00  452.38    0.73    1.43    0.09    0.00    0.00    0.00    0.00    0.00     0.00    0.00    0.00    0.00
   16    5.80    0.00    0.08    0.00    0.00    0.00  452.32    0.11    0.21    0.09    0.00    0.00    0.00    0.00    0.00     0.00    0.00    0.00    0.00
   17    0.00    0.00    0.08    0.00    0.00    0.00  452.15    0.11    0.22    0.08    0.00    0.00    0.00    0.00    0.00     0.00    0.00    0.00    0.00
   18    0.00    0.00    0.08    0.00    0.00    0.00  451.93    0.17    0.33    0.08    0.00    0.00    0.00    0.00    0.00     0.00    0.00    0.00    0.00
   19    0.00    0.00    0.08    0.00    0.00    0.00  451.83    0.32    0.64    0.08    0.00    0.00    0.00    0.00    0.00     0.00    0.00    0.00    0.00
   20    0.00    0.00    0.08    0.00    0.00    0.00  451.76    0.01    0.03    0.08    0.00    0.00    0.00    0.00    0.00     0.00    0.00    0.00    0.00
   21    0.80    0.00    0.08    0.00    0.00    0.00  451.70    0.00    0.00    0.08    0.00    0.00    0.00    0.00    0.00     0.00    0.00    0.00    0.00
   22    0.00    0.00    0.08    0.00    0.00    0.00  451.64    0.00    0.00    0.08    0.00    0.00    0.00    0.00    0.00     0.00    0.00    0.00    0.00
   23    0.00    0.00    0.08    0.00    0.00    0.00  451.26    0.32    0.64    0.08    0.00    0.00    0.00    0.00    0.00     0.00    0.00    0.00    0.00
   24    0.00    0.00    0.08    0.00    0.00    0.00  450.86    0.34    0.69    0.08    0.00    0.00    0.00    0.00    0.00     0.00    0.00    0.00    0.00
   25    0.00    0.00    0.08    0.00    0.00    0.00  450.58    0.21    0.43    0.08    0.00    0.00    0.00    0.00    0.00     0.00    0.00    0.00    0.00
   26    0.00    0.00    0.08    0.00    0.00    0.00  450.52    0.02    0.03    0.08    0.00    0.00    0.00    0.00    0.00     0.00    0.00    0.00    0.00
   27    0.00    0.00    0.08    0.00    0.00    0.00  451.13    0.06    0.13    0.08    0.00    0.00    0.00    0.00    0.00     0.00    0.00    0.00    0.00
   28    0.00    0.00    0.08    0.00    0.00    0.00  450.84    0.23    0.45    0.08    0.00    0.00    0.00    0.00    0.00     0.00    0.00    0.00    0.00
   29    0.30    0.00    0.08    0.00    0.00    0.00  450.78    0.00    0.00    0.08    0.00    0.00    0.00    0.00    0.00     0.00    0.00    0.00    0.00
   30    0.00    0.00    0.08    0.00    0.00    0.00  450.69    0.25    0.49    0.08    0.00    0.00    0.00    0.00    0.00     0.00    0.00    0.00    0.00
   31    0.00    2.61    0.08    0.00    0.19    2.42  452.99    0.72    1.44    4.46    0.10    0.00    0.00    0.00    0.00     0.22    0.00    0.03    0.01
    1   47.30   19.19    2.49    0.00    0.47    9.75  452.99    6.97   13.91   31.16    0.86    0.00    0.00    0.00    0.00     2.54    0.00    0.31    0.01
   32    0.30    0.00    0.08    0.00    0.00    0.00  453.13    0.09    0.19    0.57    0.00    0.00    0.00    0.00    0.00     0.06    0.00    0.01    0.00
   33    0.00    0.00    0.08    0.00    0.00    0.00  452.41    0.66    1.32    0.20    0.00    0.00    0.00    0.00    0.00     0.01    0.00    0.00    0.00
   34   21.10   12.50    0.08    0.00    0.08    3.20  453.22    0.15    0.30   12.70    0.59    0.00    0.00    0.00    0.00     1.26    0.00    0.15    0.01
   35    0.00    0.00    0.08    0.00    0.00    0.00  452.23    0.93    1.85    2.43    0.00    0.00    0.00    0.00    0.00     0.31    0.00    0.04    0.00
   36    0.00    0.00    0.08    0.00    0.00    0.00  451.64    0.53    1.08    0.67    0.00    0.00    0.00    0.00    0.00     0.08    0.00    0.01    0.00
   37    0.00    0.00    0.08    0.00    0.00    0.00  451.32    0.26    0.54    0.23    0.00    0.00    0.00    0.00    0.00     0.02    0.00    0.00    0.00
   38    0.00    0.00    0.08    0.00    0.00    0.00  450.63    0.63    1.25    0.12    0.00    0.00    0.00    0.00    0.00     0.00    0.00    0.00    0.00
   39    1.00    0.00    0.08    0.00    0.00    0.00  451.27    0.30    0.61    0.09    0.00    0.00    0.00    0.00    0.00     0.00    0.00    0.00    0.00
   40    0.30    0.00    0.08    0.00    0.00    0.00  451.10    0.11    0.22    0.08    0.00    0.00    0.00    0.00    0.00     0.00    0.00    0.00    0.00
   41    0.50    0.00    0.08    0.00    0.00    0.00  451.01    0.04    0.07    0.08    0.00    0.00    0.00    0.00    0.00     0.00    0.00    0.00    0.00
   42    0.30    0.00    0.08    0.00    0.00    0.00  450.95    0.00    0.00    0.08    0.00    0.00    0.00    0.00    0.00     0.00    0.00    0.00    0.00
   43    0.00    0.00    0.08    0.00    0.00    0.00  450.49    0.39    0.79    0.08    0.00    0.00    0.00    0.00    0.00     0.00    0.00    0.00    0.00
   44    0.00    0.00    0.08    0.00    0.00    0.00  450.17    0.26    0.53    0.08    0.00    0.00    0.00    0.00    0.00     0.00    0.00    0.00    0.00
   45    0.00    0.00    0.08    0.00    0.00    0.00  449.81    0.16    0.33    0.08    0.00    0.00    0.00    0.00    0.00     0.00    0.00    0.00    0.00
   46    0.80    0.00    0.08    0.00    0.00    0.00  449.15    0.00    0.00    0.08    0.00    0.00    0.00    0.00    0.00     0.00    0.00    0.00    0.00
   47    0.00    0.00    0.08    0.00    0.00    0.00  448.36    0.26    0.52    0.08    0.00    0.00    0.00    0.00    0.00     0.00    0.00    0.00    0.00
   48    0.30    0.00    0.08    0.00    0.00    0.00  448.18    0.00    0.00    0.08    0.00    0.00    0.00    0.00    0.00     0.00    0.00    0.00    0.00
   49    0.00    0.00    0.08    0.00    0.00    0.00  447.64    0.21    0.42    0.08    0.00    0.00    0.00    0.00    0.00     0.00    0.00    0.00    0.00
   50    0.00    0.00    0.08    0.00    0.00    0.00  447.29    0.13    0.26    0.08    0.00    0.00    0.00    0.00    0.00     0.00    0.00    0.00    0.00
   51    0.00    0.00    0.08    0.00    0.00    0.00  445.78    1.08    2.17    0.08    0.00    0.00    0.00    0.00    0.49     0.00    0.00    0.00    0.00
   52    0.00    0.00    0.08    0.00    0.00    1.97  447.10    1.03    2.06    2.05    0.00    0.00    0.00    0.00    0.43     0.00    0.00    0.00    0.00
   53    0.00    0.00    0.08    0.00    0.00    0.00  448.34    0.51    1.04    0.08    0.00    0.00    0.00    0.00    0.00     0.00    0.00    0.00    0.00
   54    0.00    0.00    0.08    0.00    0.00    0.00  448.41    0.68    1.35    0.08    0.00    0.00    0.00    0.00    0.00     0.00    0.00    0.00    0.00
   55   24.90   11.92    0.08    0.00    0.24    3.46  453.31    0.05    0.11   12.49    0.55    0.00    0.00    0.00    0.00     1.16    0.00    0.14    0.00
   56   13.20    0.04    0.08    0.00    0.01    1.08  453.35    0.51    1.00    3.43    0.00    0.00    0.00    0.00    0.00     0.30    0.00    0.04    0.00
   57    2.30    0.00    0.08    0.00    0.00    0.13  453.36    0.00    0.00    0.78    0.00    0.00    0.00    0.00    0.00     0.08    0.00    0.01    0.00
   58    0.00    0.00    0.08    0.00    0.00    0.00  453.01    0.29    0.58    0.22    0.00    0.00    0.00    0.00    0.00     0.02    0.00    0.00    0.00
   59    0.00    0.00    0.08    0.00    0.03    0.44  453.35    0.68    1.31    0.56    0.00    0.00    0.00    0.00    0.00     0.00    0.00    0.00    0.00
   60    3.00    6.55    0.08    0.00    0.00    3.19  453.20    0.16    0.34    8.20    0.30    0.00    0.00    0.00    0.13     0.62    0.00    0.08    0.00
    2   68.00   31.01    2.31    0.00    0.36   13.48  453.20   10.11   20.23   45.83    1.45    0.00    0.00    0.00    1.05     3.93    0.00    0.48    0.01
   61    0.00    0.00    0.08    0.00    0.00    0.00  450.70    2.44    4.89    1.31    0.00    0.00    0.00    0.00    0.00     0.15    0.00    0.02    0.00
   62   13.20    4.69    0.09    0.00    0.17    2.82  452.69    0.68    1.37    6.73    0.20    0.00    0.00    0.00    0.00     0.45    0.00    0.05    0.00
   63    0.00    0.00    0.09    0.00    0.00    0.00  451.61    1.02    2.02    1.04    0.00    0.00    0.00    0.00    0.00     0.11    0.00    0.01    0.00
   64    4.10    0.00    0.09    0.00    0.00    0.00  451.55    0.00    0.00    0.32    0.00    0.00    0.00    0.00    0.00     0.03    0.00    0.00    0.00
   65    0.00    0.00    0.09    0.00    0.00    0.00  451.23    0.26    0.50    0.15    0.00    0.00    0.00    0.00    0.00     0.01    0.00    0.00    0.00
   66    0.00    0.00    0.09    0.00    0.00    0.00  451.14    0.81    1.57    0.10    0.00    0.00    0.00    0.00    0.00     0.00    0.00    0.00    0.00
   67    0.00    0.00    0.09    0.00    0.15    0.37  451.78    1.59    3.18    0.46    0.00    0.00    0.00    0.00    0.00     0.00    0.00    0.00    0.00
   68    0.00    0.00    0.08    0.00    0.00    0.00  449.70    2.02    3.99    0.09    0.00    0.00    0.00    0.00    0.13     0.00    0.00    0.00    0.00
   69    0.00    0.00    0.08    0.00    0.00    0.00  447.60    2.05    4.07    0.09    0.00    0.00    0.00    0.00    0.02     0.00    0.00    0.00    0.00
   70   15.50    2.33    0.09    0.00    0.23    3.03  452.69    0.68    1.35    4.87    0.05    0.00    0.00    0.00    0.02     0.12    0.00    0.02    0.00
   71   18.00    9.92    0.09    0.00    0.07    3.10  452.38    0.99    1.98   11.08    0.43    0.00    0.00    0.00    0.02     0.94    0.00    0.12    0.00
   72    0.00    0.00    0.09    0.00    0.00    0.00  451.11    1.21    2.40    2.06    0.00    0.00    0.00    0.00    0.00     0.23    0.00    0.03    0.00
   73    6.30    0.00    0.09    0.00    0.17    1.62  452.55    0.81    1.63    2.21    0.00    0.00    0.00    0.00    0.03     0.06    0.00    0.01    0.00
   74    2.30    0.00    0.09    0.00    0.08    0.57  453.17    0.19    0.40    0.79    0.00    0.00    0.00    0.00    0.02     0.01    0.00    0.00    0.00
   75   27.70   19.35    0.10    0.00    0.02    3.44  452.82    0.54    1.08   18.10    0.47    0.00    0.00    0.00    0.02     1.08    0.00    0.13    0.00
   76    0.00    0.00    0.09    0.00    0.00    0.00  450.97    1.80    3.57    3.72    0.00    0.00    0.00    0.00    0.02     0.27    0.00    0.03    0.00
   77    0.00    0.00    0.09    0.00    0.00    0.00  449.04    1.87    3.73    1.00    0.00    0.00    0.00    0.00    0.02     0.07    0.00    0.01    0.00
   78    0.00    0.00    0.09    0.00    0.00    0.00  447.70    1.28    2.56    0.32    0.00    0.00    0.00    0.00    0.00     0.02    0.00    0.00    0.00
   79    0.00    0.00    0.09    0.00    0.00    0.00  446.21    1.43    2.86    0.15    0.00    0.00    0.00    0.00    0.00     0.00    0.00    0.00    0.00
   80    0.00    0.00    0.09    0.00    0.00    0.00  445.01    1.14    2.28    0.11    0.00    0.00    0.00    0.00    0.00     0.00    0.00    0.00    0.00
   81    0.00    0.00    0.09    0.00    0.00    0.00  443.41    1.54    3.10    0.10    0.00    0.00    0.00    0.00    0.00     0.00    0.00    0.00    0.00
   82    0.00    0.00    0.09    0.00    0.00    0.00  441.87    1.48    2.95    0.09    0.00    0.00    0.00    0.00    0.00     0.00    0.00    0.00    0.00
   83    0.00    0.00    0.09    0.00    0.00    0.00  440.36    1.44    2.85    0.09    0.00    0.00    0.00    0.00    0.10     0.00    0.00    0.00    0.00
   84    0.00    0.00    0.09    0.00    0.00    0.00  438.18    2.13    4.22    0.09    0.00    0.00    0.00    0.00    0.02     0.00    0.00    0.00    0.00
   85   14.20    0.00    0.09    0.00    0.00    0.00  451.86    0.45    0.89    0.09    0.00    0.00    0.00    0.00    0.02     0.00    0.00    0.00    0.00
   86    0.00    0.00    0.09    0.00    0.00    0.00  450.66    1.14    2.29    0.09    0.00    0.00    0.00    0.00    0.00     0.00    0.00    0.00    0.00
   87    0.00    0.00    0.09    0.00    0.00    0.00  448.91    1.69    3.38    0.09    0.00    0.00    0.00    0.00    0.00     0.00    0.00    0.00    0.00
   88   12.40    1.79    0.09    0.00    0.22    2.49  451.98    1.39    2.79    3.93    0.07    0.00    0.00    0.00    0.05     0.14    0.00    0.02    0.00
   89    0.00    0.00    0.09    0.00    0.00    0.00  450.81    1.10    2.19    0.43    0.00    0.00    0.00    0.00    0.00     0.04    0.00    0.00    0.00
   90    0.00    0.00    0.09    0.00    0.00    0.00  448.96    1.80    3.58    0.17    0.00    0.00    0.00    0.00    0.00     0.01    0.00    0.00    0.00
   91    3.80    0.00    0.09    0.00    0.00    0.00  452.27    0.43    0.87    0.11    0.00    0.00    0.00    0.00    0.05     0.00    0.00    0.00    0.00
    3  117.50   38.08    2.77    0.00    1.10   17.46  452.27   37.39   74.54   59.95    1.22    0.00    0.00    0.00    0.52     3.76    0.00    0.46    0.00
   92   11.70    4.33    0.09    0.00    0.10    2.60  452.80    0.57    1.16    5.95    0.17    0.00    0.00    0.00    0.02     0.34    0.00    0.04    0.00
   93    1.30    0.00    0.09    0.00    0.06    0.26  452.60    0.76    1.53    1.16    0.00    0.00    0.00    0.00    0.00     0.08    0.00    0.01    0.00
   94    1.50    0.00    0.09    0.00    0.08    0.25  453.21    0.16    0.32    0.55    0.00    0.00    0.00    0.00    0.00     0.02    0.00    0.00    0.00
   95    0.00    0.00    0.09    0.00    0.00    0.00  451.51    1.64    3.29    0.14    0.00    0.00    0.00    0.00    0.00     0.01    0.00    0.00    0.00
   96    0.00    0.00    0.09    0.00    0.00    0.00  450.26    1.19    2.38    0.10    0.00    0.00    0.00    0.00    0.00     0.00    0.00    0.00    0.00
   97    0.00    0.00    0.09    0.00    0.00    0.00  448.99    1.20    2.42    0.09    0.00    0.00    0.00    0.00    0.00     0.00    0.00    0.00    0.00
   98   25.90   13.14    0.09    0.00    0.25    3.45  452.36    1.01    2.02   13.40    0.70    0.00    0.00    0.00    0.10     1.29    0.00    0.16    0.00
   99    2.80    0.00    0.09    0.00    0.10    0.70  452.88    0.49    0.99    3.25    0.00    0.00    0.00    0.00    0.00     0.32    0.00    0.04    0.00
  100    3.80    0.00    0.09    0.00    0.05    1.36  453.23    0.13    0.28    2.07    0.00    0.00    0.00    0.00    0.00     0.08    0.00    0.01    0.00
  101    0.50    0.00    0.09    0.00    0.00    0.00  453.11    0.06    0.12    0.25    0.00    0.00    0.00    0.00    0.00     0.02    0.00    0.00    0.00
  102    3.30    0.20    0.09    0.00    0.02    1.39  453.26    0.11    0.22    1.67    0.01    0.00    0.00    0.00    0.00     0.02    0.00    0.00    0.00
  103   19.80   12.18    0.10    0.00    0.01    3.17  453.06    0.31    0.63   12.46    0.68    0.00    0.00    0.00    0.00     1.21    0.00    0.15    0.00
  104    0.00    0.00    0.10    0.00    0.00    0.00  451.07    1.93    3.88    2.39    0.00    0.00    0.00    0.00    0.00     0.30    0.00    0.04    0.00
  105    0.00    0.00    0.10    0.00    0.00    0.00  449.15    1.86    3.74    0.67    0.00    0.00    0.00    0.00    0.00     0.08    0.00    0.01    0.00
  106    0.00    0.00    0.10    0.00    0.00    0.00  446.51    2.58    5.16    0.24    0.00    0.00    0.00    0.00    0.13     0.02    0.00    0.00    0.00
  107    0.00    0.00    0.09    0.00    0.00    0.00  443.47    2.98    5.97    0.13    0.00    0.00    0.00    0.00    0.02     0.00    0.00    0.00    0.00
  108    0.00    0.00    0.09    0.00    0.00    0.00  440.92    2.49    4.98    0.10    0.00    0.00    0.00    0.00    0.02     0.00    0.00    0.00    0.00
  109    0.00    0.00    0.09    0.00    0.00    0.00  437.99    2.87    5.75    0.10    0.00    0.00    0.00    0.00    0.02     0.00    0.00    0.00    0.00
  110    0.00    0.00    0.09    0.00    0.00    0.00  434.49    3.44    6.87    0.09    0.00    0.00    0.00    0.00    0.02     0.00    0.00    0.00    0.00
  111    0.00    0.00    0.09    0.00    0.00    0.00  432.43    1.99    3.96    0.09    0.00    0.00    0.00    0.00    0.02     0.00    0.00    0.00    0.00
  112    0.00    0.00    0.09    0.00    0.00    0.00  429.91    2.47    4.93    0.09    0.00    0.00    0.00    0.00    0.02     0.00    0.00    0.00    0.00
  113    2.50    0.00    0.09    0.00    0.00    0.00  431.90    0.45    0.92    0.09    0.00    0.00    0.00    0.00    0.02     0.00    0.00    0.00    0.00
  114    1.00    0.00    0.09    0.00    0.00    0.00  432.65    0.19    0.38    0.09    0.00    0.00    0.00    0.00    0.02     0.00    0.00    0.00    0.00
  115    0.00    0.00    0.09    0.00    0.00    0.00  431.04    1.55    3.07    0.09    0.00    0.00    0.00    0.00    0.02     0.00    0.00    0.00    0.00
  116    0.00    0.00    0.09    0.00    0.00    0.00  427.77    3.21    6.56    0.09    0.00    0.00    0.00    0.00    0.02     0.00    0.00    0.00    0.00
  117    0.00    0.00    0.09    0.00    0.00    0.00  425.18    2.53    5.45    0.09    0.00    0.00    0.00    0.00    0.02     0.00    0.00    0.00    0.00
  118    0.00    0.00    0.09    0.00    0.00    0.00  423.34    1.78    4.00    0.09    0.00    0.00    0.00    0.00    0.02     0.00    0.00    0.00    0.00
  119    2.50    0.00    0.09    0.00    0.00    0.00  425.31    0.47    1.10    0.09    0.00    0.00    0.00    0.00    0.02     0.00    0.00    0.00    0.00
  120    0.50    0.00    0.09    0.00    0.00    0.00  425.36    0.38    0.89    0.09    0.00    0.00    0.00    0.00    0.02     0.00    0.00    0.00    0.00
  121    0.00    0.00    0.09    0.00    0.00    0.00  423.38    1.92    4.41    0.09    0.00    0.00    0.00    0.00    0.02     0.00    0.00    0.00    0.00
    4   77.10   29.84    2.75    0.00    0.67   13.19  423.38   42.72   87.35   45.81    1.55    0.00    0.00    0.00    0.50     3.79    0.00    0.46    0.00
  122    9.40    0.00    0.09    0.00    0.00    0.00  431.58    1.15    2.31    0.09    0.00    0.00    0.00    0.00    0.02     0.00    0.00    0.00    0.00
  123   22.60    0.00    0.09    0.00    0.00    0.31  451.81    1.56    3.11    0.39    0.00    0.00    0.00    0.00    0.02     0.00    0.00    0.00    0.00
  124    0.30    0.00    0.09    0.00    0.00    0.00  451.55    0.50    1.03    0.09    0.00    0.00    0.00    0.00    0.02     0.00    0.00    0.00    0.00
  125    0.00    0.00    0.08    0.00    0.00    0.00  449.31    2.18    4.37    0.09    0.00    0.00    0.00    0.00    0.02     0.00    0.00    0.00    0.00
  126    1.00    0.00    0.08    0.00    0.00    0.00  449.87    0.38    0.77    0.09    0.00    0.00    0.00    0.00    0.00     0.00    0.00    0.00    0.00
  127    0.50    0.00    0.08    0.00    0.00    0.00  449.86    0.45    0.92    0.08    0.00    0.00    0.00    0.00    0.00     0.00    0.00    0.00    0.00
  128    0.00    0.00    0.08    0.00    0.00    0.00  447.81    1.99    4.00    0.08    0.00    0.00    0.00    0.00    0.05     0.00    0.00    0.00    0.00
  129    0.00    0.00    0.08    0.00    0.00    0.00  444.55    3.20    6.40    0.08    0.00    0.00    0.00    0.00    0.02     0.00    0.00    0.00    0.00
  130    0.00    0.00    0.08    0.00    0.00    0.00  442.54    1.95    3.91    0.08    0.00    0.00    0.00    0.00    0.02     0.00    0.00    0.00    0.00
  131    5.80    0.00    0.08    0.00    0.00    0.00  446.95    1.33    2.67    0.08    0.00    0.00    0.00    0.00    0.02     0.00    0.00    0.00    0.00
  132   18.50    4.42    0.09    0.00    0.39    3.07  452.01    1.36    2.77    6.48    0.18    0.00    0.00    0.00    0.02     0.34    0.00    0.04    0.00
  133    0.00    0.00    0.08    0.00    0.00    0.00  448.82    3.13    6.29    0.91    0.00    0.00    0.00    0.00    0.02     0.09    0.00    0.01    0.00
  134   17.80    5.47    0.09    0.00    0.30    3.17  452.53    0.84    1.72    7.57    0.27    0.00    0.00    0.00    0.02     0.50    0.00    0.06    0.00
  135    5.80    0.38    0.09    0.00    0.09    1.89  452.29    1.08    2.17    3.34    0.00    0.00    0.00    0.00    0.08     0.17    0.00    0.02    0.00
  136    0.00    0.00    0.09    0.00    0.00    0.00  450.59    1.63    3.23    0.43    0.00    0.00    0.00    0.00    0.00     0.04    0.00    0.01    0.00
  137    0.00    0.00    0.09    0.00    0.00    0.00  448.99    1.54    2.99    0.17    0.00    0.00    0.00    0.00    0.00     0.01    0.00    0.00    0.00
  138    0.00    0.00    0.09    0.00    0.00    0.00  446.49    2.44    4.78    0.11    0.00    0.00    0.00    0.00    0.39     0.00    0.00    0.00    0.00
  139    4.30    0.00    0.09    0.00    0.00    0.00  450.31    0.42    0.84    0.09    0.00    0.00    0.00    0.00    0.12     0.00    0.00    0.00    0.00
  140    0.00    0.00    0.09    0.00    0.00    0.00  448.44    1.81    3.66    0.09    0.00    0.00    0.00    0.00    0.37     0.00    0.00    0.00    0.00
  141    0.00    0.00    0.09    0.00    0.00    0.00  445.03    3.34    6.80    0.09    0.00    0.00    0.00    0.00    0.42     0.00    0.00    0.00    0.00
  142    3.60    0.00    0.09    0.00    0.00    0.00  447.62    0.96    1.94    0.09    0.00    0.00    0.00    0.00    0.26     0.00    0.00    0.00    0.00
  143    0.50    0.00    0.09    0.00    0.00    0.00  446.98    1.07    2.18    0.09    0.00    0.00    0.00    0.00    0.15     0.00    0.00    0.00    0.00
  144    0.00    0.00    0.08    0.00    0.00    0.00  444.87    2.05    4.11    0.09    0.00    0.00    0.00    0.00    0.39     0.00    0.00    0.00    0.00
  145    0.00    0.00    0.08    0.00    0.00    0.00  441.14    3.67    7.43    0.09    0.00    0.00    0.00    0.00    0.41     0.00    0.00    0.00    0.00
  146    0.00    0.00    0.08    0.00    0.00    0.00  438.66    2.42    4.83    0.08    0.00    0.00    0.00    0.00    0.36     0.00    0.00    0.00    0.00
  147    0.00    0.00    0.08    0.00    0.00    0.00  434.75    3.85    7.67    0.08    0.00    0.00    0.00    0.00    0.27     0.00    0.00    0.00    0.00
  148    0.00    0.00    0.08    0.00    0.00    0.00  429.78    4.91    9.88    0.08    0.00    0.00    0.00    0.00    0.33     0.00    0.00    0.00    0.00
  149    0.00    0.00    0.08    0.00    0.00    0.00  424.72    5.00   10.13    0.08    0.00    0.00    0.00    0.00    0.35     0.00    0.00    0.00    0.00
  150    0.00    0.00    0.08    0.00    0.00    0.00  421.95    2.70    5.92    0.08    0.00    0.00    0.00    0.00    0.41     0.00    0.00    0.00    0.00
  151   22.10    0.00    0.08    0.00    0.00    0.00  442.82    1.17    2.29    0.08    0.00    0.00    0.00    0.00    0.29     0.00    0.00    0.00    0.00
  152    0.00    0.00    0.08    0.00    0.00    0.00  439.67    3.10    6.18    0.08    0.00    0.00    0.00    0.00    0.42     0.00    0.00    0.00    0.00
    5  112.20   10.27    2.63    0.00    0.78    8.43  439.67   63.18  127.31   21.36    0.45    0.00    0.00    0.00    5.24     1.16    0.00    0.14    0.00
  153    0.00    0.00    0.08    0.00    0.00    0.00  435.50    4.10    8.20    0.08    0.00    0.00    0.00    0.00    0.43     0.00    0.00    0.00    0.00
  154    0.00    0.00    0.08    0.00    0.00    0.00  431.24    4.20    8.41    0.08    0.00    0.00    0.00    0.00    0.42     0.00    0.00    0.00    0.00
  155    0.00    0.00    0.08    0.00    0.00    0.00  427.23    3.95    7.86    0.08    0.00    0.00    0.00    0.00    0.50     0.00    0.00    0.00    0.00
  156    0.00    0.00    0.08    0.00    0.00    0.00  423.14    4.03    8.36    0.08    0.00    0.00    0.00    0.00    0.53     0.00    0.00    0.00    0.00
  157    7.40    0.00    0.08    0.00    0.00    0.00  429.34    1.14    2.29    0.08    0.00    0.00    0.00    0.00    0.29     0.00    0.00    0.00    0.00
  158    5.60    0.00    0.08    0.00    0.00    0.00  433.76    1.11    2.12    0.08    0.00    0.00    0.00    0.00    0.30     0.00    0.00    0.00    0.00
  159    0.00    0.00    0.08    0.00    0.00    0.00  430.31    3.40    6.64    0.08    0.00    0.00    0.00    0.00    0.78     0.00    0.00    0.00    0.00
  160    0.00    0.00    0.08    0.00    0.00    0.00  427.85    2.40    4.60    0.08    0.00    0.00    0.00    0.00    0.88     0.00    0.00    0.00    0.00
  161    0.00    0.00    0.08    0.00    0.00    0.00  424.96    2.83    5.56    0.08    0.00    0.00    0.00    0.00    0.90     0.00    0.00    0.00    0.00
  162    0.00    0.00    0.08    0.00    0.00    0.00  422.02    2.88    6.05    0.08    0.00    0.00    0.00    0.00    1.04     0.00    0.00    0.00    0.00
  163    0.00    0.00    0.08    0.00    0.00    0.00  418.96    3.00    6.89    0.08    0.00    0.00    0.00    0.00    1.00     0.00    0.00    0.00    0.00
  164    0.00    0.00    0.08    0.00    0.00    0.00  415.81    3.09    6.96    0.08    0.00    0.00    0.00    0.00    1.18     0.00    0.00    0.00    0.00
  165    0.00    0.00    0.08    0.00    0.00    0.00  412.85    2.90    7.03    0.08    0.00    0.00    0.00    0.00    1.36     0.00    0.00    0.00    0.00
  166    0.00    0.00    0.08    0.00    0.00    0.00  410.67    2.13    5.18    0.08    0.00    0.00    0.00    0.00    1.54     0.00    0.00    0.00    0.00
  167    0.30    0.00    0.08    0.00    0.00    0.00  410.48    0.43    1.07    0.08    0.00    0.00    0.00    0.00    0.52     0.00    0.00    0.00    0.00
  168    8.10    0.00    0.07    0.00    0.00    0.00  417.80    0.72    1.65    0.08    0.00    0.00    0.00    0.00    0.42     0.00    0.00    0.00    0.00
  169    0.50    0.00    0.07    0.00    0.00    0.00  417.76    0.47    1.11    0.08    0.00    0.00    0.00    0.00    0.56     0.00    0.00    0.00    0.00
  170    0.00    0.00    0.07    0.00    0.00    0.00  414.18    3.52    7.95    0.08    0.00    0.00    0.00    0.00    2.70     0.00    0.00    0.00    0.00
  171    0.00    0.00    0.07    0.00    0.00    0.00  410.33    3.79    8.94    0.07    0.00    0.00    0.00    0.00    2.46     0.00    0.00    0.00    0.00
  172    0.00    0.00    0.07    0.00    0.00    0.00  405.66    4.62   10.70    0.07    0.00    0.00    0.00    0.00    2.56     0.00    0.00    0.00    0.00
  173    0.00    0.00    0.07    0.00    0.00    0.00  402.47    3.13    6.51    0.07    0.00    0.00    0.00    0.00    4.99     0.00    0.00    0.00    0.00
  174    0.00    0.00    0.07    0.00    0.00    0.00  398.95    3.46    8.67    0.07    0.00    0.00    0.00    0.00    3.96     0.00    0.00    0.00    0.00
  175   15.70    0.00    0.07    0.00    0.00    0.00  413.51    1.09    2.39    0.07    0.00    0.00    0.00    0.00    4.14     0.00    0.00    0.00    0.00
  176    0.00    0.00    0.07    0.00    0.00    0.00  409.46    3.99    8.54    0.07    0.00    0.00    0.00    0.00    6.42     0.00    0.00    0.00    0.00
  177    0.00    0.00    0.07    0.00    0.00    0.00  406.21    3.19    7.13    0.07    0.00    0.00    0.00    0.00    7.60     0.00    0.00    0.00    0.00
  178    0.00    0.00    0.07    0.00    0.00    0.00  402.68    3.47    6.83    0.07    0.00    0.00    0.00    0.00    6.15     0.00    0.00    0.00    0.00
  179    0.50    0.00    0.07    0.00    0.00    0.00  402.17    0.94    1.95    0.07    0.00    0.00    0.00    0.00    3.90     0.00    0.00    0.00    0.00
  180    0.00    0.00    0.07    0.00    0.00    0.00  398.71    3.41    6.84    0.07    0.00    0.00    0.00    0.00    7.64     0.00    0.00    0.00    0.00
  181    0.00    0.00    0.07    0.00    0.00    0.00  395.81    2.84    6.00    0.07    0.00    0.00    0.00    0.00    8.58     0.00    0.00    0.00    0.00
  182    0.00    0.00    0.07    0.00    0.00    0.00  393.24    2.51    4.80    0.07    0.00    0.00    0.00    0.00    9.39     0.00    0.00    0.00    0.00
    6   38.10    0.00    2.25    0.00    0.00    0.00  393.24   82.76  177.25    2.28    0.00    0.00    0.00    0.00   83.16     0.00    0.00    0.00    0.00
  183    1.00    0.00    0.07    0.00    0.00    0.00  393.06    1.12    2.35    0.07    0.00    0.00    0.00    0.00    6.67     0.00    0.00    0.00    0.00
  184    0.30    0.00    0.07    0.00    0.00    0.00  391.66    1.64    3.46    0.07    0.00    0.00    0.00    0.00    5.76     0.00    0.00    0.00    0.00
  185    0.00    0.00    0.07    0.00    0.00    0.00  388.80    2.80    5.44    0.07    0.00    0.00    0.00    0.00   10.06     0.00    0.00    0.00    0.00
  186    0.30    0.00    0.07    0.00    0.00    0.00  387.63    1.42    3.21    0.07    0.00    0.00    0.00    0.00    9.55     0.00    0.00    0.00    0.00
  187    0.00    0.00    0.07    0.00    0.00    0.00  385.13    2.44    5.32    0.07    0.00    0.00    0.00    0.00   10.44     0.00    0.00    0.00    0.00
  188    0.00    0.00    0.07    0.00    0.00    0.00  380.59    4.49    9.44    0.07    0.00    0.00    0.00    0.00    9.29     0.00    0.00    0.00    0.00
  189    2.50    0.00    0.07    0.00    0.00    0.00  381.20    1.83    3.65    0.07    0.00    0.00    0.00    0.00    8.89     0.00    0.00    0.00    0.00
  190    9.40    0.00    0.07    0.00    0.00    0.00  388.93    1.61    3.35    0.07    0.00    0.00    0.00    0.00    7.06     0.00    0.00    0.00    0.00
  191    1.30    0.00    0.07    0.00    0.00    0.00  387.94    2.24    4.62    0.07    0.00    0.00    0.00    0.00   11.06     0.00    0.00    0.00    0.00
  192    0.00    0.00    0.07    0.00    0.00    0.00  385.10    2.78    5.92    0.07    0.00    0.00    0.00    0.00   12.53     0.00    0.00    0.00    0.00
  193    0.00    0.00    0.07    0.00    0.00    0.00  381.97    3.07    6.71    0.07    0.00    0.00    0.00    0.00   11.09     0.00    0.00    0.00    0.00
  194    0.00    0.00    0.07    0.00    0.00    0.00  378.67    3.25    7.25    0.07    0.00    0.00    0.00    0.00    9.76     0.00    0.00    0.00    0.00
  195    0.00    0.00    0.07    0.00    0.00    0.00  375.01    3.60    8.14    0.07    0.00    0.00    0.00    0.00   10.07     0.00    0.00    0.00    0.00
  196   13.50    0.00    0.07    0.00    0.00    0.00  387.07    1.39    2.98    0.07    0.00    0.00    0.00    0.00    9.20     0.00    0.00    0.00    0.00
  197   15.20    0.00    0.07    0.00    0.00    0.00  400.85    1.36    2.27    0.07    0.00    0.00    0.00    0.00    7.63     0.00    0.00    0.00    0.00
  198    0.00    0.00    0.07    0.00    0.00    0.00  395.10    5.69    9.58    0.07    0.00    0.00    0.00    0.00   11.29     0.00    0.00    0.00    0.00
  199    0.00    0.00    0.07    0.00    0.00    0.00  391.45    3.60    6.20    0.07    0.00    0.00    0.00    0.00   11.90     0.00    0.00    0.00    0.00
  200   18.00    0.00    0.07    0.00    0.00    0.00  407.88    1.51    2.33    0.07    0.00    0.00    0.00    0.00    4.25     0.00    0.00    0.00    0.00
  201    0.30    0.00    0.07    0.00    0.00    0.00  406.52    1.60    2.51    0.07    0.00    0.00    0.00    0.00    9.10     0.00    0.00    0.00    0.00
  202    0.00    0.00    0.07    0.00    0.00    0.00  401.93    4.54    7.29    0.07    0.00    0.00    0.00    0.00   12.76     0.00    0.00    0.00    0.00
  203    0.00    0.00    0.07    0.00    0.00    0.00  398.40    3.48    5.77    0.07    0.00    0.00    0.00    0.00   11.84     0.00    0.00    0.00    0.00
  204    0.00    0.00    0.06    0.00    0.00    0.00  394.02    4.33    7.33    0.07    0.00    0.00    0.00    0.00   12.73     0.00    0.00    0.00    0.00
  205    0.00    0.00    0.06    0.00    0.00    0.00  390.74    3.22    5.52    0.07    0.00    0.00    0.00    0.00   11.68     0.00    0.00    0.00    0.00
  206    0.00    0.00    0.06    0.00    0.00    0.00  387.56    3.13    5.46    0.07    0.00    0.00    0.00    0.00   12.97     0.00    0.00    0.00    0.00
  207   21.60    0.00    0.06    0.00    0.00    0.00  407.37    1.74    2.71    0.07    0.00    0.00    0.00    0.00    3.97     0.00    0.00    0.00    0.00
  208    0.00    0.00    0.06    0.00    0.00    0.00  403.35    3.96    6.30    0.06    0.00    0.00    0.00    0.00   10.86     0.00    0.00    0.00    0.00
  209    0.00    0.00    0.06    0.00    0.00    0.00  398.00    5.30    8.57    0.06    0.00    0.00    0.00    0.00   10.40     0.00    0.00    0.00    0.00
  210    0.00    0.00    0.06    0.00    0.00    0.00  393.95    3.99    6.67    0.06    0.00    0.00    0.00    0.00   13.42     0.00    0.00    0.00    0.00
  211    0.00    0.00    0.06    0.00    0.00    0.00  389.92    3.98    6.82    0.06    0.00    0.00    0.00    0.00   14.03     0.00    0.00    0.00    0.00
  212    0.30    0.00    0.06    0.00    0.00    0.00  389.06    1.10    1.94    0.06    0.00    0.00    0.00    0.00    7.93     0.00    0.00    0.00    0.00
  213    6.90    0.00    0.06    0.00    0.00    0.00  394.59    1.32    2.30    0.06    0.00    0.00    0.00    0.00    9.01     0.00    0.00    0.00    0.00
    7   90.60    0.00    2.06    0.00    0.00    0.00  394.59   87.54  161.43    2.09    0.00    0.00    0.00    0.00  307.20     0.00    0.00    0.00    0.00
  214    0.00    0.00    0.06    0.00    0.00    0.00  392.04    2.50    4.26    0.06    0.00    0.00    0.00    0.00    9.62     0.00    0.00    0.00    0.00
  215    0.00    0.00    0.06    0.00    0.00    0.00  389.05    2.93    5.12    0.06    0.00    0.00    0.00    0.00   12.34     0.00    0.00    0.00    0.00
  216    0.00    0.00    0.06    0.00    0.00    0.00  385.38    3.62    6.40    0.06    0.00    0.00    0.00    0.00   12.20     0.00    0.00    0.00    0.00
  217    0.00    0.00    0.06    0.00    0.00    0.00  382.38    2.95    5.33    0.06    0.00    0.00    0.00    0.00   13.31     0.00    0.00    0.00    0.00
  218    0.00    0.00    0.06    0.00    0.00    0.00  378.99    3.34    6.00    0.06    0.00    0.00    0.00    0.00   12.94     0.00    0.00    0.00    0.00
  219    0.50    0.00    0.06    0.00    0.00    0.00  378.21    1.23    2.47    0.06    0.00    0.00    0.00    0.00    9.38     0.00    0.00    0.00    0.00
  220    0.00    0.00    0.06    0.00    0.00    0.00  375.19    2.97    5.43    0.06    0.00    0.00    0.00    0.00   12.32     0.00    0.00    0.00    0.00
  221    0.00    0.00    0.06    0.00    0.00    0.00  372.25    2.89    5.23    0.06    0.00    0.00    0.00    0.00   11.85     0.00    0.00    0.00    0.00
  222    0.00    0.00    0.06    0.00    0.00    0.00  368.46    3.74    7.55    0.06    0.00    0.00    0.00    0.00    9.18     0.00    0.00    0.00    0.00
  223    0.50    0.00    0.06    0.00    0.00    0.00  368.26    0.65    1.44    0.06    0.00    0.00    0.00    0.00    4.47     0.00    0.00    0.00    0.00
  224    0.00    0.00    0.06    0.00    0.00    0.00  365.82    2.39    5.28    0.06    0.00    0.00    0.00    0.00    9.92     0.00    0.00    0.00    0.00
  225    0.00    0.00    0.06    0.00    0.00    0.00  363.51    2.26    5.18    0.06    0.00    0.00    0.00    0.00   11.02     0.00    0.00    0.00    0.00
  226    0.00    0.00    0.06    0.00    0.00    0.00  360.34    3.12    7.38    0.06    0.00    0.00    0.00    0.00    7.80     0.00    0.00    0.00    0.00
  227   55.10    0.00    0.06    0.00    0.00    0.00  412.11    3.28    3.74    0.06    0.00    0.00    0.00    0.00    4.36     0.00    0.00    0.00    0.00
  228   18.50    0.00    0.06    0.00    0.00    0.00  428.91    1.64    1.81    0.06    0.00    0.00    0.00    0.00    3.73     0.00    0.00    0.00    0.00
  229    4.30    0.00    0.06    0.00    0.00    0.00  432.30    0.87    1.04    0.06    0.00    0.00    0.00    0.00    3.09     0.00    0.00    0.00    0.00
  230   45.70   26.28    0.06    0.00    0.53    0.00  448.37    2.50    2.57   19.80    1.19    0.00    0.00    0.00    4.68     2.13    0.00    0.26    0.00
  231    0.50    0.00    0.06    0.00    0.00    0.00  445.06    3.75    3.93    4.98    0.00    0.00    0.00    0.00    4.73     0.53    0.00    0.07    0.00
  232    0.00    0.00    0.06    0.00    0.00    0.00  440.57    4.42    4.75    1.29    0.00    0.00    0.00    0.00    8.03     0.13    0.00    0.02    0.00
  233    4.10    0.00    0.06    0.00    0.00    0.00  442.96    1.66    1.66    0.37    0.00    0.00    0.00    0.00    3.12     0.03    0.00    0.00    0.00
  234   48.50   30.76    0.07    0.00    0.13    3.02  452.25    1.11    1.30   26.26    1.97    0.00    0.00    0.00    2.80     3.11    0.00    0.38    0.00
  235    0.00    0.00    0.07    0.00    0.00    0.00  448.35    3.84    4.16    5.85    0.00    0.00    0.00    0.00    7.05     0.77    0.00    0.09    0.00
  236    0.00    0.00    0.07    0.00    0.00    0.00  444.23    4.05    4.31    1.51    0.00    0.00    0.00    0.00    5.87     0.19    0.00    0.02    0.00
  237    0.00    0.00    0.07    0.00    0.00    0.00  439.75    4.42    4.42    0.43    0.00    0.00    0.00    0.00    4.59     0.05    0.00    0.01    0.00
  238   17.80    0.00    0.07    0.00    0.00    1.76  450.89    2.48    2.87    1.92    0.00    0.00    0.00    0.00    3.85     0.01    0.00    0.00    0.00
  239    0.00    0.00    0.07    0.00    0.00    0.00  445.21    5.63    5.63    0.09    0.00    0.00    0.00    0.00    2.88     0.00    0.00    0.00    0.00
  240    0.00    0.00    0.07    0.00    0.00    0.00  437.92    7.22    7.88    0.08    0.00    0.00    0.00    0.00    2.75     0.00    0.00    0.00    0.00
  241    2.30    0.00    0.07    0.00    0.00    0.00  438.44    1.72    2.18    0.07    0.00    0.00    0.00    0.00    2.34     0.00    0.00    0.00    0.00
  242    7.90    0.00    0.07    0.00    0.00    0.00  444.01    2.27    2.63    0.07    0.00    0.00    0.00    0.00    1.98     0.00    0.00    0.00    0.00
  243    0.00    0.00    0.07    0.00    0.00    0.00  439.19    4.76    5.83    0.07    0.00    0.00    0.00    0.00    1.57     0.00    0.00    0.00    0.00
  244    2.80    0.00    0.07    0.00    0.00    0.00  440.94    0.99    1.45    0.07    0.00    0.00    0.00    0.00    2.12     0.00    0.00    0.00    0.00
    8  208.50   57.05    2.01    0.00    0.66    4.77  440.94   91.21  129.22   63.85    3.16    0.00    0.00    0.00  205.89     6.97    0.00    0.85    0.00
  245    0.80    0.00    0.07    0.00    0.00    0.00  440.81    0.86    1.11    0.07    0.00    0.00    0.00    0.00    1.59     0.00    0.00    0.00    0.00
  246    0.00    0.00    0.07    0.00    0.00    0.00  437.53    3.22    4.26    0.07    0.00    0.00    0.00    0.00    1.16     0.00    0.00    0.00    0.00
  247    0.00    0.00    0.07    0.00    0.00    0.00  433.42    4.05    5.34    0.07    0.00    0.00    0.00    0.00    1.60     0.00    0.00    0.00    0.00
  248    0.00    0.00    0.07    0.00    0.00    0.00  430.16    3.21    4.22    0.07    0.00    0.00    0.00    0.00    1.84     0.00    0.00    0.00    0.00
  249    0.00    0.00    0.07    0.00    0.00    0.00  425.14    4.95    7.58    0.07    0.00    0.00    0.00    0.00    1.72     0.00    0.00    0.00    0.00
  250    0.00    0.00    0.07    0.00    0.00    0.00  420.98    4.10    6.61    0.07    0.00    0.00    0.00    0.00    1.54     0.00    0.00    0.00    0.00
  251    0.00    0.00    0.07    0.00    0.00    0.00  417.20    3.73    5.52    0.07    0.00    0.00    0.00    0.00    1.43     0.00    0.00    0.00    0.00
  252    0.00    0.00    0.07    0.00    0.00    0.00  413.84    3.29    5.63    0.07    0.00    0.00    0.00    0.00    1.31     0.00    0.00    0.00    0.00
  253    6.60    0.00    0.07    0.00    0.00    0.00  419.79    0.59    1.20    0.07    0.00    0.00    0.00    0.00    1.28     0.00    0.00    0.00    0.00
  254    4.30    0.00    0.07    0.00    0.00    0.00  423.15    0.88    1.69    0.07    0.00    0.00    0.00    0.00    0.90     0.00    0.00    0.00    0.00
  255    7.10    0.00    0.07    0.00    0.00    0.00  429.38    0.81    1.54    0.07    0.00    0.00    0.00    0.00    0.78     0.00    0.00    0.00    0.00
  256    0.00    0.00    0.07    0.00    0.00    0.00  427.00    2.32    4.05    0.07    0.00    0.00    0.00    0.00    0.73     0.00    0.00    0.00    0.00
  257    0.00    0.00    0.07    0.00    0.00    0.00  423.85    3.09    5.50    0.07    0.00    0.00    0.00    0.00    0.86     0.00    0.00    0.00    0.00
  258    0.00    0.00    0.07    0.00    0.00    0.00  421.44    2.35    3.80    0.07    0.00    0.00    0.00    0.00    0.85     0.00    0.00    0.00    0.00
  259    2.00    0.00    0.07    0.00    0.00    0.00  422.40    0.98    2.16    0.07    0.00    0.00    0.00    0.00    0.92     0.00    0.00    0.00    0.00
  260    0.00    0.00    0.07    0.00    0.00    0.00  419.85    2.48    5.14    0.07    0.00    0.00    0.00    0.00    0.85     0.00    0.00    0.00    0.00
  261    4.30    0.00    0.07    0.00    0.00    0.00  423.62    0.47    1.05    0.07    0.00    0.00    0.00    0.00    0.71     0.00    0.00    0.00    0.00
  262    5.80    0.00    0.07    0.00    0.00    0.00  428.36    1.00    2.12    0.07    0.00    0.00    0.00    0.00    0.62     0.00    0.00    0.00    0.00
  263    0.00    0.00    0.07    0.00    0.00    0.00  426.54    1.77    3.70    0.07    0.00    0.00    0.00    0.00    0.49     0.00    0.00    0.00    0.00
  264    0.00    0.00    0.07    0.00    0.00    0.00  424.58    1.90    4.50    0.07    0.00    0.00    0.00    0.00    0.53     0.00    0.00    0.00    0.00
  265    0.00    0.00    0.07    0.00    0.00    0.00  422.39    2.12    5.12    0.07    0.00    0.00    0.00    0.00    0.51     0.00    0.00    0.00    0.00
  266    0.00    0.00    0.07    0.00    0.00    0.00  420.73    1.60    4.04    0.07    0.00    0.00    0.00    0.00    0.46     0.00    0.00    0.00    0.00
  267    0.00    0.00    0.07    0.00    0.00    0.00  418.94    1.73    4.93    0.07    0.00    0.00    0.00    0.00    0.39     0.00    0.00    0.00    0.00
  268    0.00    0.00    0.07    0.00    0.00    0.00  416.83    2.06    6.52    0.07    0.00    0.00    0.00    0.00    0.00     0.00    0.00    0.00    0.00
  269    0.00    0.00    0.07    0.00    0.00    0.00  414.94    1.82    6.09    0.07    0.00    0.00    0.00    0.00    0.00     0.00    0.00    0.00    0.00
  270    0.00    0.00    0.07    0.00    0.00    0.00  412.99    1.89    6.52    0.07    0.00    0.00    0.00    0.00    0.00     0.00    0.00    0.00    0.00
  271    4.60    0.00    0.07    0.00    0.00    0.00  417.34    0.20    0.70    0.07    0.00    0.00    0.00    0.00    0.00     0.00    0.00    0.00    0.00
  272   19.60    0.00    0.07    0.00    0.00    0.00  436.51    0.36    0.96    0.07    0.00    0.00    0.00    0.00    0.00     0.00    0.00    0.00    0.00
  273   17.30    0.00    0.07    0.00    0.70    0.00  452.73    0.27    0.71    0.07    0.00    0.00    0.00    0.00    0.00     0.00    0.00    0.00    0.00
  274   11.70    5.07    0.07    0.00    0.03    2.52  453.13    0.24    0.63    6.39    0.26    0.00    0.00    0.00    0.22     0.40    0.00    0.05    0.00
    9   84.10    5.07    2.02    0.00    0.72    2.52  453.13   58.37  112.95    8.36    0.26    0.00    0.00    0.00   23.30     0.40    0.00    0.05    0.00
  275   20.30   12.47    0.07    0.00    0.03    3.20  453.11    0.26    0.26   13.59    0.58    0.00    0.00    0.00    1.08     1.16    0.00    0.14    0.00
  276   15.20    8.02    0.08    0.00    0.00    2.93  451.59    1.78    1.78   11.59    0.02    0.00    0.00    0.00    2.62     0.78    0.00    0.10    0.00
  277    0.00    0.00    0.08    0.00    0.00    0.00  449.21    2.32    2.43    2.22    0.00    0.00    0.00    0.00    4.61     0.19    0.00    0.02    0.00
  278    0.00    0.00    0.08    0.00    0.00    0.00  444.45    4.70    4.70    0.61    0.00    0.00    0.00    0.00    3.95     0.05    0.00    0.01    0.00
  279    0.00    0.00    0.08    0.00    0.00    0.00  440.14    4.25    4.26    0.21    0.00    0.00    0.00    0.00    4.23     0.01    0.00    0.00    0.00
  280    0.00    0.00    0.08    0.00    0.00    0.00  435.44    4.64    4.72    0.11    0.00    0.00    0.00    0.00    4.02     0.00    0.00    0.00    0.00
  281    0.00    0.00    0.08    0.00    0.00    0.00  432.80    2.58    2.62    0.08    0.00    0.00    0.00    0.00    3.36     0.00    0.00    0.00    0.00
  282    0.00    0.00    0.07    0.00    0.00    0.00  429.36    3.38    3.45    0.08    0.00    0.00    0.00    0.00    3.22     0.00    0.00    0.00    0.00
  283    0.00    0.00    0.07    0.00    0.00    0.00  426.77    2.53    2.57    0.08    0.00    0.00    0.00    0.00    3.18     0.00    0.00    0.00    0.00
  284    0.00    0.00    0.07    0.00    0.00    0.00  423.71    3.00    3.56    0.07    0.00    0.00    0.00    0.00    3.91     0.00    0.00    0.00    0.00
  285    0.00    0.00    0.07    0.00    0.00    0.00  422.11    1.54    2.01    0.07    0.00    0.00    0.00    0.00    3.98     0.00    0.00    0.00    0.00
  286    0.00    0.00    0.07    0.00    0.00    0.00  420.15    1.91    2.48    0.07    0.00    0.00    0.00    0.00    3.98     0.00    0.00    0.00    0.00
  287    1.30    0.00    0.07    0.00    0.00    0.00  421.15    0.24    0.34    0.07    0.00    0.00    0.00    0.00    1.08     0.00    0.00    0.00    0.00
  288    0.00    0.00    0.07    0.00    0.00    0.00  419.26    1.83    2.42    0.07    0.00    0.00    0.00    0.00    4.09     0.00    0.00    0.00    0.00
  289    0.00    0.00    0.07    0.00    0.00    0.00  416.66    2.53    3.39    0.07    0.00    0.00    0.00    0.00    3.05     0.00    0.00    0.00    0.00
  290    0.00    0.00    0.07    0.00    0.00    0.00  413.63    2.98    3.61    0.07    0.00    0.00    0.00    0.00    3.72     0.00    0.00    0.00    0.00
  291    3.60    0.00    0.07    0.00    0.00    0.00  416.98    0.19    0.29    0.07    0.00    0.00    0.00    0.00    0.78     0.00    0.00    0.00    0.00
  292    0.00    0.00    0.07    0.00    0.00    0.00  412.96    3.96    4.94    0.07    0.00    0.00    0.00    0.00    3.48     0.00    0.00    0.00    0.00
  293    2.50    0.00    0.07    0.00    0.00    0.00  414.52    0.88    1.26    0.07    0.00    0.00    0.00    0.00    1.00     0.00    0.00    0.00    0.00
  294   21.80    0.00    0.07    0.00    0.00    0.00  436.09    0.17    0.21    0.07    0.00    0.00    0.00    0.00    0.60     0.00    0.00    0.00    0.00
  295   22.60    0.00    0.07    0.00    0.57    1.99  453.09    0.27    0.39    2.06    0.00    0.00    0.00    0.00    0.00     0.00    0.00    0.00    0.00
  296    1.80    0.00    0.07    0.00    0.00    0.62  452.83    0.54    0.57    0.70    0.00    0.00    0.00    0.00    0.00     0.00    0.00    0.00    0.00
  297    0.00    0.00    0.07    0.00    0.00    0.00  449.68    3.09    3.70    0.08    0.00    0.00    0.00    0.00    0.00     0.00    0.00    0.00    0.00
  298    0.00    0.00    0.07    0.00    0.00    0.00  446.09    3.53    3.57    0.07    0.00    0.00    0.00    0.00    3.12     0.00    0.00    0.00    0.00
  299    0.00    0.00    0.07    0.00    0.00    0.00  444.47    1.56    1.91    0.07    0.00    0.00    0.00    0.00    0.00     0.00    0.00    0.00    0.00
  300    0.00    0.00    0.07    0.00    0.00    0.00  442.13    2.28    2.89    0.07    0.00    0.00    0.00    0.00    0.00     0.00    0.00    0.00    0.00
  301    2.30    0.00    0.07    0.00    0.00    0.00  443.93    0.43    0.58    0.07    0.00    0.00    0.00    0.00    0.00     0.00    0.00    0.00    0.00
  302    0.00    0.00    0.07    0.00    0.00    0.00  441.87    2.01    2.03    0.07    0.00    0.00    0.00    0.00    0.00     0.00    0.00    0.00    0.00
  303    0.00    0.00    0.07    0.00    0.00    0.00  439.95    1.85    2.09    0.07    0.00    0.00    0.00    0.00    3.24     0.00    0.00    0.00    0.00
  304    0.00    0.00    0.07    0.00    0.00    0.00  437.63    2.26    2.61    0.07    0.00    0.00    0.00    0.00    3.23     0.00    0.00    0.00    0.00
  305    1.30    0.00    0.07    0.00    0.00    0.00  438.61    0.27    0.38    0.07    0.00    0.00    0.00    0.00    1.43     0.00    0.00    0.00    0.00
   10   92.70   20.49    2.29    0.00    0.59    8.74  438.61   63.74   72.05   32.80    0.59    0.00    0.00    0.00   70.96     2.19    0.00    0.27    0.00
  306    0.00    0.00    0.07    0.00    0.00    0.00  436.50    2.05    2.48    0.07    0.00    0.00    0.00    0.00    0.00     0.00    0.00    0.00    0.00
  307    0.00    0.00    0.07    0.00    0.00    0.00  432.88    3.56    4.05    0.07    0.00    0.00    0.00    0.00    1.78     0.00    0.00    0.00    0.00
  308    0.00    0.00    0.07    0.00    0.00    0.00  429.49    3.33    3.89    0.07    0.00    0.00    0.00    0.00    2.06     0.00    0.00    0.00    0.00
  309    0.00    0.00    0.07    0.00    0.00    0.00  428.81    0.62    0.74    0.07    0.00    0.00    0.00    0.00    1.08     0.00    0.00    0.00    0.00
  310    0.00    0.00    0.07    0.00    0.00    0.00  427.11    1.64    2.03    0.07    0.00    0.00    0.00    0.00    0.00     0.00    0.00    0.00    0.00
  311    0.00    0.00    0.07    0.00    0.00    0.00  426.02    1.04    1.30    0.07    0.00    0.00    0.00    0.00    0.00     0.00    0.00    0.00    0.00
  312    0.00    0.00    0.07    0.00    0.00    0.00  423.92    2.04    2.90    0.07    0.00    0.00    0.00    0.00    1.83     0.00    0.00    0.00    0.00
  313    0.00    0.00    0.07    0.00    0.00    0.00  421.73    2.13    2.97    0.07    0.00    0.00    0.00    0.00    2.16     0.00    0.00    0.00    0.00
  314    2.50    0.00    0.07    0.00    0.00    0.00  423.97    0.20    0.32    0.07    0.00    0.00    0.00    0.00    1.32     0.00    0.00    0.00    0.00
  315    0.00    0.00    0.07    0.00    0.00    0.00  423.18    0.74    1.21    0.07    0.00    0.00    0.00    0.00    0.00     0.00    0.00    0.00    0.00
  316    0.00    0.00    0.07    0.00    0.00    0.00  421.15    1.97    2.96    0.07    0.00    0.00    0.00    0.00    0.00     0.00    0.00    0.00    0.00
  317    0.00    0.00    0.07    0.00    0.00    0.00  420.03    1.06    1.59    0.07    0.00    0.00    0.00    0.00    0.00     0.00    0.00    0.00    0.00
  318    0.00    0.00    0.07    0.00    0.00    0.00  418.41    1.56    2.45    0.07    0.00    0.00    0.00    0.00    0.00     0.00    0.00    0.00    0.00
  319    0.00    0.00    0.07    0.00    0.00    0.00  417.30    1.06    1.52    0.07    0.00    0.00    0.00    0.00    0.00     0.00    0.00    0.00    0.00
  320    0.00    0.00    0.07    0.00    0.00    0.00  416.11    1.13    1.76    0.07    0.00    0.00    0.00    0.00    0.00     0.00    0.00    0.00    0.00
  321    0.00    0.00    0.07    0.00    0.00    0.00  414.49    1.56    2.26    0.07    0.00    0.00    0.00    0.00    0.00     0.00    0.00    0.00    0.00
  322    0.00    0.00    0.07    0.00    0.00    0.00  413.32    1.11    1.63    0.07    0.00    0.00    0.00    0.00    0.00     0.00    0.00    0.00    0.00
  323    0.00    0.00    0.07    0.00    0.00    0.00  412.46    0.80    1.17    0.07    0.00    0.00    0.00    0.00    1.42     0.00    0.00    0.00    0.00
  324    1.30    0.00    0.07    0.00    0.00    0.00  413.65    0.05    0.08    0.07    0.00    0.00    0.00    0.00    0.44     0.00    0.00    0.00    0.00
  325    1.00    0.00    0.07    0.00    0.00    0.00  414.31    0.28    0.47    0.07    0.00    0.00    0.00    0.00    0.00     0.00    0.00    0.00    0.00
  326    0.00    0.00    0.07    0.00    0.00    0.00  413.12    1.13    2.01    0.07    0.00    0.00    0.00    0.00    0.00     0.00    0.00    0.00    0.00
  327    0.00    0.00    0.07    0.00    0.00    0.00  412.26    0.80    1.44    0.07    0.00    0.00    0.00    0.00    0.00     0.00    0.00    0.00    0.00
  328    0.00    0.00    0.07    0.00    0.00    0.00  411.83    0.37    0.60    0.07    0.00    0.00    0.00    0.00    0.00     0.00    0.00    0.00    0.00
  329    3.60    0.00    0.07    0.00    0.00    0.00  415.27    0.11    0.16    0.07    0.00    0.00    0.00    0.00    0.00     0.00    0.00    0.00    0.00
  330    0.00    0.00    0.07    0.00    0.00    0.00  414.01    1.20    2.12    0.07    0.00    0.00    0.00    0.00    0.00     0.00    0.00    0.00    0.00
  331    0.00    0.00    0.07    0.00    0.00    0.00  413.04    0.91    1.58    0.07    0.00    0.00    0.00    0.00    0.00     0.00    0.00    0.00    0.00
  332    0.00    0.00    0.07    0.00    0.00    0.00  412.26    0.71    1.13    0.07    0.00    0.00    0.00    0.00    0.00     0.00    0.00    0.00    0.00
  333    0.00    0.00    0.07    0.00    0.00    0.00  410.92    1.29    2.25    0.07    0.00    0.00    0.00    0.00    0.00     0.00    0.00    0.00    0.00
  334   13.50    0.00    0.07    0.00    0.00    0.00  424.25    0.11    0.18    0.07    0.00    0.00    0.00    0.00    0.00     0.00    0.00    0.00    0.00
  335    0.00    0.00    0.07    0.00    0.00    0.00  422.70    1.49    2.07    0.07    0.00    0.00    0.00    0.00    0.00     0.00    0.00    0.00    0.00
   11   21.90    0.00    2.07    0.00    0.00    0.00  422.70   36.02   51.32    2.09    0.00    0.00    0.00    0.00   12.08     0.00    0.00    0.00    0.00
  336    0.50    0.00    0.07    0.00    0.00    0.00  423.14    0.00    0.01    0.07    0.00    0.00    0.00    0.00    0.00     0.00    0.00    0.00    0.00
  337    0.00    0.00    0.07    0.00    0.00    0.00  422.48    0.60    0.88    0.07    0.00    0.00    0.00    0.00    0.00     0.00    0.00    0.00    0.00
  338    0.00    0.00    0.07    0.00    0.00    0.00  421.93    0.49    0.76    0.07    0.00    0.00    0.00    0.00    0.00     0.00    0.00    0.00    0.00
  339    0.00    0.00    0.07    0.00    0.00    0.00  421.51    0.37    0.56    0.07    0.00    0.00    0.00    0.00    0.00     0.00    0.00    0.00    0.00
  340    5.10    0.00    0.07    0.00    0.00    0.00  424.12    0.00    0.00    0.07    0.00    0.00    0.00    0.00    0.00     0.00    0.00    0.00    0.00
  341    0.00    0.00    0.07    0.00    0.00    0.00  425.71    0.63    0.80    0.07    0.00    0.00    0.00    0.00    0.00     0.00    0.00    0.00    0.00
  342   13.50    0.00    0.07    0.00    0.00    0.00  427.26    0.50    0.68    0.07    0.00    0.00    0.00    0.00    0.00     0.00    0.00    0.00    0.00
  343    0.00    0.00    0.06    0.00    0.00    0.00  426.35    0.86    1.15    0.07    0.00    0.00    0.00    0.00    0.00     0.00    0.00    0.00    0.00
  344    0.00    0.00    0.06    0.00    0.00    0.00  426.17    0.19    0.23    0.07    0.00    0.00    0.00    0.00    0.00     0.00    0.00    0.00    0.00
  345    0.00    0.00    0.06    0.00    0.00    0.00  425.81    0.30    0.40    0.07    0.00    0.00    0.00    0.00    0.00     0.00    0.00    0.00    0.00
  346    2.80    0.00    0.06    0.00    0.00    0.00  425.75    0.00    0.00    0.07    0.00    0.00    0.00    0.00    0.00     0.00    0.00    0.00    0.00
  347    5.10    0.00    0.06    0.00    0.00    0.00  425.69    0.00    0.00    0.07    0.00    0.00    0.00    0.00    0.00     0.00    0.00    0.00    0.00
  348    0.00    0.00    0.06    0.00    0.00    0.00  425.08    0.55    0.61    0.06    0.00    0.00    0.00    0.00    0.00     0.00    0.00    0.00    0.00
  349    1.30    0.00    0.06    0.00    0.00    0.00  424.99    0.03    0.04    0.06    0.00    0.00    0.00    0.00    0.00     0.00    0.00    0.00    0.00
  350    0.00    0.00    0.06    0.00    0.00    0.00  424.62    0.31    0.44    0.06    0.00    0.00    0.00    0.00    0.00     0.00    0.00    0.00    0.00
  351    0.00    0.00    0.06    0.00    0.00    0.00  424.42    0.14    0.17    0.06    0.00    0.00    0.00    0.00    0.00     0.00    0.00    0.00    0.00
  352    7.60    0.00    0.06    0.00    0.00    0.00  424.37    0.00    0.00    0.06    0.00    0.00    0.00    0.00    0.00     0.00    0.00    0.00    0.00
  353   23.90    0.00    0.06    0.00    0.00    0.00  423.99    0.32    0.43    0.06    0.00    0.00    0.00    0.00    0.00     0.00    0.00    0.00    0.00
  354    0.30    0.00    0.06    0.00    0.00    0.00  423.94    0.00    0.00    0.06    0.00    0.00    0.00    0.00    0.00     0.00    0.00    0.00    0.00
  355    0.00    0.00    0.06    0.00    0.00    0.00  423.60    0.28    0.36    0.06    0.00    0.00    0.00    0.00    0.00     0.00    0.00    0.00    0.00
  356    0.00    0.00    0.06    0.00    0.00    0.00  423.52    0.02    0.03    0.06    0.00    0.00    0.00    0.00    0.00     0.00    0.00    0.00    0.00
  357    0.00    0.00    0.06    0.00    0.00    0.00  422.83    0.63    0.82    0.06    0.00    0.00    0.00    0.00    0.00     0.00    0.00    0.00    0.00
  358    0.00    0.00    0.06    0.00    0.00    0.00  422.73    0.05    0.06    0.06    0.00    0.00    0.00    0.00    0.00     0.00    0.00    0.00    0.00
  359    2.00    0.00    0.06    0.00    0.00    0.00  422.67    0.00    0.00    0.06    0.00    0.00    0.00    0.00    0.00     0.00    0.00    0.00    0.00
  360    0.00    0.00    0.06    0.00    0.00    0.00  422.16    1.19    1.50    0.06    0.00    0.00    0.00    0.00    0.00     0.00    0.00    0.00    0.00
  361    0.00    0.00    0.06    0.00    0.00    0.00  430.06    1.35    1.63    0.06    0.00    0.00    0.00    0.00    0.00     0.00    0.00    0.00    0.00
  362   11.90    0.00    0.07    0.00    0.41    2.29  453.31    0.12    0.13    2.36    0.00    0.00    0.00    0.00    0.00     0.00    0.00    0.00    0.01
  363    0.00    0.00    0.07    0.00    0.00    0.00  452.84    0.41    0.43    0.07    0.00    0.00    0.00    0.00    0.00     0.00    0.00    0.00    0.00
  364    0.50    0.00    0.07    0.00    0.00    0.00  452.46    0.32    0.42    0.07    0.00    0.00    0.00    0.00    0.00     0.00    0.00    0.00    0.00
  365    0.00    0.00    0.07    0.00    0.00    0.00  452.47    0.22    0.27    0.07    0.00    0.00    0.00    0.00    0.00     0.00    0.00    0.00    0.00
  366    0.00    0.00    0.07    0.00    0.00    0.00  452.41    0.00    0.00    0.07    0.00    0.00    0.00    0.00    0.00     0.00    0.00    0.00    0.00
   12   74.50    0.00    2.00    0.00    0.41    2.29  452.41    9.90   12.77    4.32    0.00    0.00    0.00    0.00    0.00     0.00    0.00    0.00    0.01

 2016 1032.50  211.00   27.65    0.00    5.76   80.62  452.41  589.91 1040.32  319.90    9.54    0.00    0.01    0.00  709.90    24.75    0.01    3.03    0.03
1
    SWAT Jan 13 2025   VER kalcic-nifafrozen                                        

    General Input/Output section (file.cio):                                        
    8/10/2023 12:00:00 AM ARCGIS-SWAT interface AV                                  
                                                                                    
Annual Summary for Watershed in year    5 of simulation

UNIT                                    PERCO    TILE                           WATER     SED     NO3     NO3     NO3     NO3        N       P       P
TIME     PREC    SURQ    LATQ     GWQ    LATE       Q     SW       ET     PET   YIELD   YIELD    SURQ    LATQ    PERC    CROP  ORGANIC SOLUBLE ORGANIC TILENO3
         (mm)    (mm)    (mm)    (mm)    (mm)    (mm)    (mm)    (mm)    (mm)    (mm)   (t/ha)  ------------------(kg nutrient/ha)-------------------- (kg/ha)
    1    0.00    0.00    0.07    0.00    0.00    0.00  451.87    0.47    0.57    0.07    0.00    0.00    0.00    0.00    0.00     0.00    0.00    0.00    0.00
    2    0.00    0.00    0.07    0.00    0.02    0.50  453.15    0.35    0.35    0.57    0.00    0.00    0.00    0.00    0.00     0.00    0.00    0.00    0.00
    3    5.80    7.83    0.07    0.00    0.00    2.89  453.37    0.00    0.00    8.84    0.32    0.00    0.00    0.00    0.00     0.77    0.00    0.09    0.01
    4    9.90   12.00    0.07    0.00    0.00    3.16  453.24    0.30    0.34   13.71    0.30    0.00    0.00    0.00    0.00     1.31    0.00    0.16    0.01
    5    0.00    0.00    0.07    0.00    0.00    0.00  453.05    0.13    0.16    2.69    0.00    0.00    0.00    0.00    0.00     0.33    0.00    0.04    0.00
    6    1.30    0.00    0.07    0.00    0.00    0.00  452.99    0.00    0.00    0.73    0.00    0.00    0.00    0.00    0.00     0.08    0.00    0.01    0.00
    7    0.00    0.00    0.07    0.00    0.00    0.00  452.73    0.19    0.25    0.24    0.00    0.00    0.00    0.00    0.00     0.02    0.00    0.00    0.00
    8    1.50    0.00    0.07    0.00    0.00    0.00  452.66    0.02    0.02    0.11    0.00    0.00    0.00    0.00    0.00     0.01    0.00    0.00    0.00
    9    0.00    0.00    0.07    0.00    0.00    0.00  452.30    0.30    0.36    0.08    0.00    0.00    0.00    0.00    0.00     0.00    0.00    0.00    0.00
   10    2.00    0.00    0.07    0.00    0.00    0.00  452.25    0.00    0.00    0.08    0.00    0.00    0.00    0.00    0.00     0.00    0.00    0.00    0.00
   11    6.10    0.77    0.08    0.00    0.00    1.77  453.37    0.00    0.00    2.43    0.03    0.00    0.00    0.00    0.00     0.06    0.00    0.01    0.00
   12    6.10    9.26    0.08    0.00    0.00    3.06  453.29    0.19    0.26   10.24    0.37    0.00    0.00    0.00    0.00     0.92    0.00    0.11    0.01
   13   13.50    6.78    0.08    0.00    0.00    2.81  453.30    0.07    0.10    9.75    0.17    0.00    0.00    0.00    0.00     1.01    0.00    0.12    0.01
   14    0.00    0.00    0.08    0.00    0.00    0.00  452.07    1.18    1.61    1.79    0.00    0.00    0.00    0.00    0.00     0.25    0.00    0.03    0.00
   15    1.00    0.00    0.08    0.00    0.00    0.00  451.79    0.21    0.26    0.51    0.00    0.00    0.00    0.00    0.00     0.06    0.00    0.01    0.00
   16    0.00    0.00    0.08    0.00    0.00    0.00  451.73    0.00    0.00    0.19    0.00    0.00    0.00    0.00    0.00     0.02    0.00    0.00    0.00
   17   15.70    8.03    0.08    0.00    0.00    2.97  453.37    0.00    0.01    9.11    0.24    0.00    0.00    0.00    0.00     0.61    0.00    0.07    0.01
   18    0.50    0.00    0.08    0.00    0.00    0.75  453.29    0.08    0.12    2.34    0.00    0.00    0.00    0.00    0.00     0.15    0.00    0.02    0.00
   19    0.00    0.00    0.08    0.00    0.00    0.00  452.94    0.29    0.40    0.46    0.00    0.00    0.00    0.00    0.00     0.04    0.00    0.00    0.00
   20   15.20    7.89    0.09    0.00    0.00    2.91  453.36    0.01    0.01    9.01    0.39    0.00    0.00    0.00    0.00     0.86    0.00    0.11    0.01
   21    0.50    0.00    0.09    0.00    0.00    0.18  453.29    0.08    0.11    1.77    0.00    0.00    0.00    0.00    0.00     0.21    0.00    0.03    0.00
   22    0.00    0.00    0.09    0.00    0.00    0.00  452.46    0.77    0.77    0.46    0.00    0.00    0.00    0.00    0.00     0.05    0.00    0.01    0.00
   23    0.30    0.00    0.09    0.00    0.00    0.00  452.57    0.13    0.19    0.18    0.00    0.00    0.00    0.00    0.00     0.01    0.00    0.00    0.00
   24    3.00    0.00    0.09    0.00    0.04    0.90  453.25    0.11    0.18    1.01    0.00    0.00    0.00    0.00    0.00     0.00    0.00    0.00    0.00
   25    0.50    0.00    0.09    0.00    0.00    0.14  453.28    0.08    0.13    0.23    0.00    0.00    0.00    0.00    0.00     0.00    0.00    0.00    0.00
   26    2.80    0.04    0.09    0.00    0.00    1.11  452.90    0.46    0.60    1.23    0.00    0.00    0.00    0.00    0.00     0.00    0.00    0.00    0.00
   27    0.80    0.00    0.09    0.00    0.00    0.00  452.84    0.00    0.00    0.09    0.00    0.00    0.00    0.00    0.00     0.00    0.00    0.00    0.00
   28    0.00    0.00    0.09    0.00    0.00    0.00  452.67    0.11    0.11    0.09    0.00    0.00    0.00    0.00    0.00     0.00    0.00    0.00    0.00
   29    0.00    0.00    0.09    0.00    0.00    0.00  451.41    1.20    1.44    0.09    0.00    0.00    0.00    0.00    0.00     0.00    0.00    0.00    0.00
   30    0.00    0.00    0.08    0.00    0.00    0.00  451.35    0.00    0.00    0.09    0.00    0.00    0.00    0.00    0.00     0.00    0.00    0.00    0.00
   31    0.00    0.00    0.08    0.00    0.00    0.00  450.92    0.37    0.38    0.08    0.00    0.00    0.00    0.00    0.00     0.00    0.00    0.00    0.00
    1   86.50   52.60    2.49    0.00    0.06   23.15  450.92    7.09    8.71   78.26    1.81    0.00    0.00    0.00    0.00     6.79    0.00    0.83    0.05
   32    0.00    0.00    0.08    0.00    0.00    0.00  450.52    1.01    1.08    0.08    0.00    0.00    0.00    0.00    0.00     0.00    0.00    0.00    0.00
   33    0.00    0.00    0.08    0.00    0.00    0.00  448.99    1.47    2.03    0.08    0.00    0.00    0.00    0.00    0.00     0.00    0.00    0.00    0.00
   34    0.00    0.00    0.08    0.00    0.00    0.00  448.14    0.82    1.15    0.08    0.00    0.00    0.00    0.00    0.00     0.00    0.00    0.00    0.00
   35    0.00    0.00    0.08    0.00    0.00    0.00  447.49    0.59    0.82    0.08    0.00    0.00    0.00    0.00    0.00     0.00    0.00    0.00    0.00
   36    0.00    0.00    0.08    0.00    0.00    0.00  446.39    1.04    1.47    0.08    0.00    0.00    0.00    0.00    0.00     0.00    0.00    0.00    0.00
   37    0.00    0.00    0.08    0.00    0.00    0.00  445.57    1.01    1.38    0.08    0.00    0.00    0.00    0.00    0.00     0.00    0.00    0.00    0.00
   38   18.50    3.86    0.08    0.00    0.00    2.89  453.30    0.07    0.10    5.87    0.09    0.00    0.00    0.00    0.00     0.24    0.00    0.03    0.01
   39    0.00    0.00    0.08    0.00    0.00    0.36  452.28    1.03    1.35    1.17    0.00    0.00    0.00    0.00    0.00     0.06    0.00    0.01    0.00
   40   14.00    0.00    0.08    0.00    0.00    0.00  452.82    0.00    0.00    0.26    0.00    0.00    0.00    0.00    0.00     0.01    0.00    0.00    0.00
   41    2.30    0.00    0.08    0.00    0.00    0.00  452.76    0.00    0.00    0.13    0.00    0.00    0.00    0.00    0.00     0.00    0.00    0.00    0.00
   42    0.00    0.00    0.08    0.00    0.00    0.13  453.08    0.29    0.34    0.23    0.00    0.00    0.00    0.00    0.00     0.00    0.00    0.00    0.00
   43   10.40   17.42    0.09    0.00    0.00    3.39  453.19    0.17    0.38   16.56    0.77    0.00    0.00    0.00    0.00     1.69    0.00    0.21    0.01
   44    0.00    0.00    0.09    0.00    0.00    0.00  451.76    1.37    1.83    3.35    0.00    0.00    0.00    0.00    0.00     0.42    0.00    0.05    0.00
   45    0.00    0.00    0.09    0.00    0.00    0.00  450.91    0.79    1.10    0.90    0.00    0.00    0.00    0.00    0.00     0.10    0.00    0.01    0.00
   46    0.00    0.00    0.09    0.00    0.00    0.00  449.74    1.11    1.53    0.29    0.00    0.00    0.00    0.00    0.00     0.03    0.00    0.00    0.00
   47    0.00    0.00    0.09    0.00    0.00    0.00  449.45    0.23    0.35    0.14    0.00    0.00    0.00    0.00    0.00     0.01    0.00    0.00    0.00
   48    0.00    0.00    0.08    0.00    0.00    0.00  448.66    0.73    1.04    0.10    0.00    0.00    0.00    0.00    0.00     0.00    0.00    0.00    0.00
   49    0.00    0.00    0.08    0.00    0.00    0.00  447.24    1.36    1.71    0.09    0.00    0.00    0.00    0.00    0.00     0.00    0.00    0.00    0.00
   50    0.00    0.00    0.08    0.00    0.00    0.00  444.30    2.88    3.72    0.08    0.00    0.00    0.00    0.00    2.83     0.00    0.00    0.00    0.00
   51    0.00    0.00    0.08    0.00    0.00    0.00  443.05    1.19    1.55    0.08    0.00    0.00    0.00    0.00    0.00     0.00    0.00    0.00    0.00
   52    0.00    0.00    0.08    0.00    0.00    0.00  441.15    1.85    2.46    0.08    0.00    0.00    0.00    0.00    2.45     0.00    0.00    0.00    0.00
   53    0.00    0.00    0.08    0.00    0.00    0.00  438.05    3.03    3.76    0.08    0.00    0.00    0.00    0.00    1.77     0.00    0.00    0.00    0.00
   54    0.00    0.00    0.08    0.00    0.00    0.00  436.23    1.76    2.43    0.08    0.00    0.00    0.00    0.00    2.35     0.00    0.00    0.00    0.00
   55    0.00    0.00    0.08    0.00    0.00    0.00  434.39    1.79    2.37    0.08    0.00    0.00    0.00    0.00    2.26     0.00    0.00    0.00    0.00
   56   11.70    0.00    0.08    0.00    0.00    0.00  445.99    0.04    0.05    0.08    0.00    0.00    0.00    0.00    0.19     0.00    0.00    0.00    0.00
   57    0.00    0.00    0.08    0.00    0.00    0.00  444.95    0.98    1.40    0.08    0.00    0.00    0.00    0.00    0.00     0.00    0.00    0.00    0.00
   58    0.00    0.00    0.08    0.00    0.00    0.00  444.35    0.54    0.80    0.08    0.00    0.00    0.00    0.00    0.00     0.00    0.00    0.00    0.00
   59    0.00    0.00    0.08    0.00    0.00    0.00  442.94    1.35    1.52    0.08    0.00    0.00    0.00    0.00    0.00     0.00    0.00    0.00    0.00
    2   56.90   21.28    2.33    0.00    0.00    6.77  442.94   28.50   37.72   30.39    0.86    0.00    0.00    0.00   11.85     2.57    0.00    0.31    0.02
   60   17.50    0.03    0.08    0.00    0.17    2.89  452.69    0.67    1.01    3.00    0.00    0.00    0.00    0.00    2.13     0.00    0.00    0.00    0.00
   61    2.00    0.00    0.08    0.00    0.01    0.54  453.15    0.21    0.31    0.63    0.00    0.00    0.00    0.00    0.00     0.00    0.00    0.00    0.00
   62    1.30    0.00    0.08    0.00    0.00    0.44  453.00    0.36    0.49    0.52    0.00    0.00    0.00    0.00    0.00     0.00    0.00    0.00    0.00
   63    0.00    0.00    0.08    0.00    0.00    0.00  452.13    0.81    1.21    0.08    0.00    0.00    0.00    0.00    0.00     0.00    0.00    0.00    0.00
   64    0.00    0.00    0.08    0.00    0.00    0.00  450.46    1.61    2.20    0.08    0.00    0.00    0.00    0.00    0.00     0.00    0.00    0.00    0.00
   65    0.00    0.00    0.08    0.00    0.00    0.00  448.33    2.07    2.86    0.08    0.00    0.00    0.00    0.00    0.00     0.00    0.00    0.00    0.00
   66   24.60   11.61    0.09    0.00    0.00    3.36  453.00    0.36    0.55   12.16    0.32    0.00    0.00    0.00    1.32     0.77    0.00    0.09    0.00
   67    0.50    0.00    0.09    0.00    0.00    0.03  452.82    0.54    0.79    2.29    0.00    0.00    0.00    0.00    0.00     0.19    0.00    0.02    0.00
   68    0.00    0.00    0.08    0.00    0.00    0.00  450.03    2.74    3.56    0.63    0.00    0.00    0.00    0.00    0.00     0.05    0.00    0.01    0.00
   69    0.80    0.00    0.08    0.00    0.00    0.00  450.34    0.43    0.64    0.22    0.00    0.00    0.00    0.00    0.00     0.01    0.00    0.00    0.00
   70    0.00    0.00    0.08    0.00    0.00    0.00  449.26    1.02    1.40    0.12    0.00    0.00    0.00    0.00    0.00     0.00    0.00    0.00    0.00
   71    0.00    0.00    0.08    0.00    0.00    0.00  448.43    0.76    1.15    0.09    0.00    0.00    0.00    0.00    0.00     0.00    0.00    0.00    0.00
   72    0.00    0.00    0.08    0.00    0.00    0.00  446.69    1.68    2.54    0.09    0.00    0.00    0.00    0.00    0.00     0.00    0.00    0.00    0.00
   73    2.50    0.00    0.08    0.00    0.00    0.00  446.63    0.00    0.00    0.08    0.00    0.00    0.00    0.00    0.00     0.00    0.00    0.00    0.00
   74    0.00    0.00    0.08    0.00    0.00    0.00  445.95    0.62    0.69    0.08    0.00    0.00    0.00    0.00    0.00     0.00    0.00    0.00    0.00
   75    0.00    0.00    0.08    0.00    0.00    0.00  445.37    0.52    0.55    0.08    0.00    0.00    0.00    0.00    0.00     0.00    0.00    0.00    0.00
   76    0.00    0.00    0.08    0.00    0.00    0.00  444.22    1.10    1.39    0.08    0.00    0.00    0.00    0.00    0.00     0.00    0.00    0.00    0.00
   77    0.00    0.00    0.08    0.00    0.00    0.00  443.80    0.97    1.22    0.08    0.00    0.00    0.00    0.00    0.00     0.00    0.00    0.00    0.00
   78    0.00    0.00    0.08    0.00    0.00    0.00  443.18    1.87    2.37    0.08    0.00    0.00    0.00    0.00    0.00     0.00    0.00    0.00    0.00
   79    2.80    0.00    0.08    0.00    0.00    0.00  443.17    0.00    0.00    0.08    0.00    0.00    0.00    0.00    0.00     0.00    0.00    0.00    0.00
   80   15.00    1.58    0.08    0.00    0.00    2.84  453.33    0.04    0.08    4.11    0.06    0.00    0.00    0.00    0.00     0.13    0.00    0.02    0.00
   81    0.00    0.00    0.08    0.00    0.00    0.00  451.56    1.72    2.34    0.38    0.00    0.00    0.00    0.00    0.00     0.03    0.00    0.00    0.00
   82    0.00    0.00    0.08    0.00    0.00    0.00  449.88    1.61    2.23    0.16    0.00    0.00    0.00    0.00    0.00     0.01    0.00    0.00    0.00
   83    0.50    0.00    0.08    0.00    0.00    0.00  450.06    0.26    0.43    0.10    0.00    0.00    0.00    0.00    0.00     0.00    0.00    0.00    0.00
   84    0.00    0.00    0.08    0.00    0.00    0.00  446.25    3.75    4.70    0.09    0.00    0.00    0.00    0.00    3.55     0.00    0.00    0.00    0.00
   85    0.00    0.00    0.08    0.00    0.00    0.00  442.07    4.12    4.87    0.08    0.00    0.00    0.00    0.00    2.50     0.00    0.00    0.00    0.00
   86    3.30    0.00    0.08    0.00    0.00    0.00  445.09    0.22    0.34    0.08    0.00    0.00    0.00    0.00    0.85     0.00    0.00    0.00    0.00
   87    7.60    0.00    0.08    0.00    0.00    0.00  452.04    0.59    0.88    0.08    0.00    0.00    0.00    0.00    1.84     0.00    0.00    0.00    0.00
   88    0.00    0.00    0.08    0.00    0.00    0.00  449.73    2.25    3.05    0.08    0.00    0.00    0.00    0.00    0.00     0.00    0.00    0.00    0.00
   89    0.00    0.00    0.08    0.00    0.00    0.00  447.14    2.53    3.75    0.08    0.00    0.00    0.00    0.00    0.00     0.00    0.00    0.00    0.00
   90   14.00    1.41    0.08    0.00    0.00    2.68  451.46    1.91    2.61    3.82    0.05    0.00    0.00    0.00    1.62     0.10    0.00    0.01    0.00
    3   92.40   14.63    2.55    0.00    0.18   12.78  451.46   37.34   50.21   29.62    0.43    0.00    0.00    0.00   13.81     1.31    0.00    0.16    0.00
[...]
  298    0.00    0.00    0.05    0.00    0.00    0.00  383.71    0.97    4.18    0.05    0.00    0.00    0.00    0.00    0.00     0.00    0.00    0.00    0.00
  299    0.00    0.00    0.05    0.00    0.00    0.00  382.98    0.68    2.81    0.05    0.00    0.00    0.00    0.00    0.00     0.00    0.00    0.00    0.00
  300    0.00    0.00    0.05    0.00    0.00    0.00  381.98    0.97    4.13    0.05    0.00    0.00    0.00    0.00    0.00     0.00    0.00    0.00    0.00
  301    3.40    0.00    0.05    0.00    0.00    0.00  385.15    0.19    0.70    0.05    0.00    0.00    0.00    0.00    0.00     0.00    0.00    0.00    0.00
  302   18.60    0.00    0.05    0.00    0.00    0.00  403.57    0.14    0.40    0.05    0.00    0.00    0.00    0.00    0.00     0.00    0.00    0.00    0.00
  303    1.80    0.00    0.05    0.00    0.00    0.00  405.10    0.23    0.62    0.05    0.00    0.00    0.00    0.00    0.00     0.00    0.00    0.00    0.00
  304    0.00    0.00    0.05    0.00    0.00    0.00  404.19    0.86    2.37    0.05    0.00    0.00    0.00    0.00    0.00     0.00    0.00    0.00    0.00
   10   70.40    0.00    1.49    0.00    0.00    0.00  404.19   14.51   74.08    1.49    0.00    0.00    0.00    0.00    0.04     0.00    0.00    0.00    0.00
  305    0.00    0.00    0.05    0.00    0.00    0.00  403.43    0.72    2.02    0.05    0.00    0.00    0.00    0.00    0.00     0.00    0.00    0.00    0.00
  306    0.00    0.00    0.05    0.00    0.00    0.00  402.81    0.58    1.65    0.05    0.00    0.00    0.00    0.00    0.00     0.00    0.00    0.00    0.00
  307    0.00    0.00    0.05    0.00    0.00    0.00  402.23    0.53    1.50    0.05    0.00    0.00    0.00    0.00    0.00     0.00    0.00    0.00    0.00
  308    0.00    0.00    0.05    0.00    0.00    0.00  401.34    0.86    2.48    0.05    0.00    0.00    0.00    0.00    0.00     0.00    0.00    0.00    0.00
  309    0.00    0.00    0.05    0.00    0.00    0.00  399.91    1.39    4.09    0.05    0.00    0.00    0.00    0.00    0.00     0.00    0.00    0.00    0.00
  310    0.30    0.00    0.05    0.00    0.00    0.00  400.10    0.07    0.22    0.05    0.00    0.00    0.00    0.00    0.00     0.00    0.00    0.00    0.00
  311    0.00    0.00    0.05    0.00    0.00    0.00  399.29    0.77    2.28    0.05    0.00    0.00    0.00    0.00    0.00     0.00    0.00    0.00    0.00
  312    0.00    0.00    0.05    0.00    0.00    0.00  398.20    1.04    3.33    0.05    0.00    0.00    0.00    0.00    0.32     0.00    0.00    0.00    0.00
  313    0.00    0.00    0.05    0.00    0.00    0.00  396.17    1.99    4.57    0.05    0.00    0.00    0.00    0.00    0.25     0.00    0.00    0.00    0.00
  314    0.00    0.00    0.05    0.00    0.00    0.00  394.85    1.28    3.05    0.05    0.00    0.00    0.00    0.00    0.01     0.00    0.00    0.00    0.00
  315    0.00    0.00    0.05    0.00    0.00    0.00  393.70    1.11    2.70    0.05    0.00    0.00    0.00    0.00    0.00     0.00    0.00    0.00    0.00
  316    0.00    0.00    0.05    0.00    0.00    0.00  392.93    0.72    1.80    0.05    0.00    0.00    0.00    0.00    0.00     0.00    0.00    0.00    0.00
  317    0.00    0.00    0.05    0.00    0.00    0.00  392.31    0.58    1.48    0.05    0.00    0.00    0.00    0.00    0.00     0.00    0.00    0.00    0.00
  318    0.00    0.00    0.05    0.00    0.00    0.00  391.36    0.91    2.33    0.05    0.00    0.00    0.00    0.00    0.00     0.00    0.00    0.00    0.00
  319    0.00    0.00    0.05    0.00    0.00    0.00  390.69    0.63    1.65    0.05    0.00    0.00    0.00    0.00    0.00     0.00    0.00    0.00    0.00
  320    0.00    0.00    0.05    0.00    0.00    0.00  389.90    0.74    1.95    0.05    0.00    0.00    0.00    0.00    0.00     0.00    0.00    0.00    0.00
  321   15.60    0.00    0.05    0.00    0.00    0.00  405.08    0.38    0.74    0.05    0.00    0.00    0.00    0.00    0.10     0.00    0.00    0.00    0.00
  322    0.00    0.00    0.05    0.00    0.00    0.00  404.55    0.48    0.96    0.05    0.00    0.00    0.00    0.00    0.00     0.00    0.00    0.00    0.00
  323    0.00    0.00    0.05    0.00    0.00    0.00  403.58    0.93    1.83    0.05    0.00    0.00    0.00    0.00    0.00     0.00    0.00    0.00    0.00
  324    0.30    0.00    0.05    0.00    0.00    0.00  403.41    0.43    0.87    0.05    0.00    0.00    0.00    0.00    0.00     0.00    0.00    0.00    0.00
  325   10.80    0.00    0.05    0.00    0.00    0.00  414.10    0.07    0.14    0.05    0.00    0.00    0.00    0.00    0.00     0.00    0.00    0.00    0.00
  326    0.00    0.00    0.05    0.00    0.00    0.00  413.31    0.74    1.37    0.05    0.00    0.00    0.00    0.00    0.00     0.00    0.00    0.00    0.00
  327    0.00    0.00    0.04    0.00    0.00    0.00  412.72    0.55    1.02    0.05    0.00    0.00    0.00    0.00    0.00     0.00    0.00    0.00    0.00
  328    0.00    0.00    0.04    0.00    0.00    0.00  411.74    0.94    1.71    0.04    0.00    0.00    0.00    0.00    0.00     0.00    0.00    0.00    0.00
  329    0.00    0.00    0.04    0.00    0.00    0.00  411.07    0.62    1.13    0.04    0.00    0.00    0.00    0.00    0.00     0.00    0.00    0.00    0.00
  330    4.00    0.00    0.04    0.00    0.00    0.00  414.97    0.06    0.12    0.04    0.00    0.00    0.00    0.00    0.00     0.00    0.00    0.00    0.00
  331    0.00    0.00    0.04    0.00    0.00    0.00  413.56    1.36    2.49    0.04    0.00    0.00    0.00    0.00    0.00     0.00    0.00    0.00    0.00
  332    0.00    0.00    0.04    0.00    0.00    0.00  413.06    0.47    0.86    0.04    0.00    0.00    0.00    0.00    0.00     0.00    0.00    0.00    0.00
  333    0.00    0.00    0.04    0.00    0.00    0.00  412.38    0.64    1.16    0.04    0.00    0.00    0.00    0.00    0.00     0.00    0.00    0.00    0.00
  334    0.00    0.00    0.04    0.00    0.00    0.00  411.15    1.18    2.16    0.04    0.00    0.00    0.00    0.00    0.00     0.00    0.00    0.00    0.00
   11   31.00    0.00    1.36    0.00    0.00    0.00  411.15   22.77   53.65    1.37    0.00    0.00    0.00    0.00    0.68     0.00    0.00    0.00    0.00
  335    4.20    0.00    0.04    0.00    0.00    0.00  415.08    0.23    0.42    0.04    0.00    0.00    0.00    0.00    0.00     0.00    0.00    0.00    0.00
  336    0.20    0.00    0.04    0.00    0.00    0.00  415.19    0.13    0.23    0.04    0.00    0.00    0.00    0.00    0.00     0.00    0.00    0.00    0.00
  337    0.00    0.00    0.04    0.00    0.00    0.00  414.55    0.69    1.26    0.04    0.00    0.00    0.00    0.00    0.00     0.00    0.00    0.00    0.00
  338    0.00    0.00    0.04    0.00    0.00    0.00  413.88    0.62    1.12    0.04    0.00    0.00    0.00    0.00    0.00     0.00    0.00    0.00    0.00
  339    1.50    0.00    0.04    0.00    0.00    0.00  415.27    0.07    0.14    0.04    0.00    0.00    0.00    0.00    0.00     0.00    0.00    0.00    0.00
  340    0.00    0.00    0.04    0.00    0.00    0.00  414.67    0.55    1.02    0.04    0.00    0.00    0.00    0.00    0.00     0.00    0.00    0.00    0.00
  341    0.00    0.00    0.04    0.00    0.00    0.00  414.34    0.29    0.54    0.04    0.00    0.00    0.00    0.00    0.00     0.00    0.00    0.00    0.00
  342    0.00    0.00    0.04    0.00    0.00    0.00  413.75    0.55    1.00    0.04    0.00    0.00    0.00    0.00    0.00     0.00    0.00    0.00    0.00
  343    8.10    0.00    0.04    0.00    0.00    0.00  421.77    0.04    0.07    0.04    0.00    0.00    0.00    0.00    0.08     0.00    0.00    0.00    0.00
  344    0.00    0.00    0.04    0.00    0.00    0.00  421.30    0.42    0.78    0.04    0.00    0.00    0.00    0.00    0.00     0.00    0.00    0.00    0.00
  345    0.30    0.00    0.04    0.00    0.00    0.00  421.26    0.07    0.14    0.04    0.00    0.00    0.00    0.00    0.00     0.00    0.00    0.00    0.00
  346    0.00    0.00    0.04    0.00    0.00    0.00  420.82    0.40    0.74    0.04    0.00    0.00    0.00    0.00    0.00     0.00    0.00    0.00    0.00
  347    0.00    0.00    0.04    0.00    0.00    0.00  420.32    0.68    1.25    0.04    0.00    0.00    0.00    0.00    0.00     0.00    0.00    0.00    0.00
  348    0.00    0.00    0.04    0.00    0.00    0.00  419.79    0.49    0.91    0.04    0.00    0.00    0.00    0.00    0.00     0.00    0.00    0.00    0.00
  349    0.00    0.00    0.04    0.00    0.00    0.00  418.70    1.05    1.92    0.04    0.00    0.00    0.00    0.00    0.00     0.00    0.00    0.00    0.00
  350    0.00    0.00    0.04    0.00    0.00    0.00  417.91    0.77    1.39    0.04    0.00    0.00    0.00    0.00    0.00     0.00    0.00    0.00    0.00
  351    6.10    0.00    0.04    0.00    0.00    0.00  423.96    0.00    0.00    0.04    0.00    0.00    0.00    0.00    0.00     0.00    0.00    0.00    0.00
  352    0.30    0.00    0.04    0.00    0.00    0.00  424.09    0.13    0.25    0.04    0.00    0.00    0.00    0.00    0.00     0.00    0.00    0.00    0.00
  353    0.00    0.00    0.04    0.00    0.00    0.00  423.58    0.47    0.86    0.04    0.00    0.00    0.00    0.00    0.00     0.00    0.00    0.00    0.00
  354    0.00    0.00    0.04    0.00    0.00    0.00  423.35    0.19    0.35    0.04    0.00    0.00    0.00    0.00    0.00     0.00    0.00    0.00    0.00
  355    0.00    0.00    0.04    0.00    0.00    0.00  422.91    0.40    0.74    0.04    0.00    0.00    0.00    0.00    0.00     0.00    0.00    0.00    0.00
  356    0.60    0.00    0.04    0.00    0.00    0.00  423.39    0.08    0.15    0.04    0.00    0.00    0.00    0.00    0.00     0.00    0.00    0.00    0.00
  357    4.70    0.00    0.04    0.00    0.00    0.00  428.02    0.03    0.06    0.04    0.00    0.00    0.00    0.00    0.00     0.00    0.00    0.00    0.00
  358    0.00    0.00    0.04    0.00    0.00    0.00  426.90    1.07    1.95    0.04    0.00    0.00    0.00    0.00    0.00     0.00    0.00    0.00    0.00
  359    0.60    0.00    0.04    0.00    0.00    0.00  427.41    0.05    0.09    0.04    0.00    0.00    0.00    0.00    0.13     0.00    0.00    0.00    0.00
  360    4.10    0.00    0.04    0.00    0.32    0.00  431.10    0.02    0.04    0.04    0.00    0.00    0.00    0.00    0.08     0.00    0.00    0.00    0.00
  361    0.30    0.00    0.04    0.00    0.00    0.00  431.33    0.02    0.04    0.04    0.00    0.00    0.00    0.00    0.00     0.00    0.00    0.00    0.00
  362    6.20    1.04    0.05    0.00    0.00    0.00  435.93    0.38    0.70    0.83    0.03    0.00    0.00    0.00    0.00     0.05    0.00    0.01    0.00
  363    0.00    0.00    0.05    0.00    0.00    0.00  435.42    0.47    0.87    0.24    0.00    0.00    0.00    0.00    0.00     0.01    0.00    0.00    0.00
  364    0.30    0.00    0.05    0.00    0.00    0.00  435.20    0.47    0.86    0.10    0.00    0.00    0.00    0.00    0.00     0.00    0.00    0.00    0.00
  365    1.10    0.00    0.05    0.00    0.08    0.00  436.17    0.00    0.00    0.06    0.00    0.00    0.00    0.00    0.00     0.00    0.00    0.00    0.00
   12   38.60    1.04    1.37    0.00    0.41    0.00  436.17   10.85   19.89    2.41    0.03    0.00    0.00    0.00    0.29     0.07    0.00    0.01    0.00

 2023  786.40   53.43   21.63    0.00    1.63   27.67  436.17  660.58 1040.95  102.80    2.23    0.00    0.01    0.00  273.57     4.57    0.06    0.61    0.03
1
    SWAT Jan 13 2025   VER kalcic-nifafrozen                                        

    General Input/Output section (file.cio):                                        
    8/10/2023 12:00:00 AM ARCGIS-SWAT interface AV                                  
                                                                                    
    FINAL VALUES

1
    SWAT Jan 13 2025   VER kalcic-nifafrozen                                        

    General Input/Output section (file.cio):                                        
    8/10/2023 12:00:00 AM ARCGIS-SWAT interface AV                                  
                                                                                    
                                            Average Plant Values (kg/ha)

  HRU       1 SUB   1 CORN  Yld =  9497.3 BIOM =   9497.3  SOYB  Yld =     0.0 BIOM =      0.0  SOYB  Yld =     0.0 BIOM =      0.0  CORN  Yld =     0.0 BIOM =      0.0  SOYB  Yld =  5598.4 BIOM =   5598.4  CORN  Yld =  8241.0 BIOM =   8241.0
RYE   Yld =     0.0 BIOM =      0.0  SOYB  Yld =  2042.9 BIOM =   2042.9  SOYB  Yld =  2640.2 BIOM =   2640.2  SOYB  Yld =  3784.9 BIOM =   3784.9  CORN  Yld = 10978.2 BIOM =  10978.2  SOYB  Yld =  5430.7 BIOM =   5430.7

    HRU STATISTICS

                AVE ANNUAL VALUES

   HRU  SUB  SOIL       AREAkm2    CN     AWCmm   USLE_LS  IRRmm  AUTONkh AUTOPkh  MIXEF PRECmm SURQGENmm   GWQmm    ETmm   SEDth  NO3kgh  ORGNkgh BIOMth   YLDth  SURQmm
      1   1   Blount     .619E-01   89.27  381.90    0.75    0.00    0.00    0.00    0.58 1048.18  239.70   26.26  619.66    8.76    0.32   23.34    6.03    6.03  239.75



                AVE MONTHLY BASIN VALUES
                   SNOW                      WATER               SED
  MON     RAIN     FALL   SURF Q    LAT Q    YIELD       ET    YIELD      PET
          (MM)     (MM)     (MM)     (MM)     (MM)     (MM)   (T/HA)     (MM)
    1    58.21    19.91    18.70     2.37    31.52     9.76     0.57    12.37
    2    70.93    21.66    28.00     2.18    40.71    17.21     0.77    22.00
    3    87.47    11.21    31.88     2.55    46.60    40.86     1.03    54.00
    4    76.33     5.45    13.22     2.40    21.70    59.01     0.30    84.31
    5   106.95     0.79    21.69     2.38    32.08    73.71     0.91   121.86
    6   120.40     0.00    33.91     2.25    42.37    88.91     1.38   156.73
    7   111.51     0.00    14.86     2.27    21.67    99.92     0.74   154.13
    8   107.97     0.00     7.13     2.06     9.80    89.08     0.39   133.11
    9    74.15     0.00     6.80     1.87     9.03    60.36     0.30   113.99
   10    89.93     0.54    19.80     1.90    26.23    37.22     0.84    69.21
   11    73.04    11.96    22.95     1.94    31.21    27.99     0.86    41.51
   12    70.65    23.94    20.50     2.09    30.32    15.48     0.66    20.28

     AVE ANNUAL BASIN STRESS DAYS
               WATER STRESS DAYS =    60.97
               TEMPERATURE STRESS DAYS =   191.39
               NITROGEN STRESS DAYS =    68.49
               PHOSPHORUS STRESS DAYS =    19.40
               AERATION STRESS DAYS =     0.00
1
    SWAT Jan 13 2025   VER kalcic-nifafrozen                                        

    General Input/Output section (file.cio):                                        
    8/10/2023 12:00:00 AM ARCGIS-SWAT interface AV                                  
                                                                                    
         AVE ANNUAL BASIN VALUES

              PRECIP =   1048.2 MM
              SNOW FALL =   95.65 MM
              SNOW MELT =    91.14 MM
              SUBLIMATION =     4.51 MM
              SURFACE RUNOFF Q =   239.70 MM
              LATERAL SOIL Q =   26.26 MM
              TILE Q =    77.41 MM
              GROUNDWATER (SHAL AQ) Q =     0.00 MM
              GROUNDWATER (DEEP AQ) Q =     0.18 MM
              REVAP (SHAL AQ => SOIL/PLANTS) =   19.67 MM
              DEEP AQ RECHARGE =     0.18 MM
              TOTAL AQ RECHARGE =    3.53 MM
              TOTAL WATER YLD =   343.59 MM
              PERCOLATION OUT OF SOIL =    3.50 MM
              ET =    619.7 MM
              PET =    983.7MM
              TRANSMISSION LOSSES =     0.00 MM
              SEPTIC INFLOW =       0.00 MM
              TOTAL SEDIMENT LOADING =      8.76 T/HA
              TILE FROM IMPOUNDED WATER =     0.000 (MM)
              EVAPORATION FROM IMPOUNDED WATER =     0.000 (MM)
              SEEPAGE INTO SOIL FROM IMPOUNDED WATER =    0.000 (MM)
              OVERFLOW FROM IMPOUNDED WATER =    0.000 (MM)
1
    SWAT Jan 13 2025   VER kalcic-nifafrozen                                        

    General Input/Output section (file.cio):                                        
    8/10/2023 12:00:00 AM ARCGIS-SWAT interface AV                                  
                                                                                    
              AVE ANNUAL BASIN VALUES


              NUTRIENTS
                   ORGANIC N =    23.341 (KG/HA)
                   ORGANIC P =     3.799 (KG/HA)
                   NO3 YIELD (SQ) =     0.293 (KG/HA)
                   NO3 YIELD (LAT) =    0.027 (KG/HA)
                   NO3 YIELD (TILE) =    0.231 (KG/HA)
                   SOLP YIELD (TILE) =    0.025(KG/HA)
                   SOLP YIELD (SURF INLET RISER) =    0.000 (KG/HA)
                   SOL P YIELD =    0.094 (KG/HA)
                   NO3 LEACHED =     0.008 (KG/HA)
                   P LEACHED =     0.004 (KG/HA)
                   N UPTAKE =   445.233 (KG/HA)
                   P UPTAKE =  104.635 (KG/HA)
                   NO3 YIELD (GWQ) =     0.000 (KG/HA)
                   ACTIVE TO SOLUTION P FLOW =       -81.973 (KG/HA)
                   ACTIVE TO STABLE P FLOW =       -73.139 (KG/HA)
                   N FERTILIZER APPLIED =    62.026 (KG/HA)
                   P FERTILIZER APPLIED =    10.017 (KG/HA)
                   N FIXATION =   376.654 (KG/HA)
                   DENITRIFICATION =     0.000 (KG/HA)
                   HUMUS MIN ON ACTIVE ORG N =     6.973 (KG/HA)
                   ACTIVE TO STABLE ORG N =    -4.874 (KG/HA)
                   HUMUS MIN ON ACTIVE ORG P =    1.200 (KG/HA)
                   MIN FROM FRESH ORG N =    0.266 (KG/HA)
                   MIN FROM FRESH ORG P =   10.304 (KG/HA)
                   NO3 IN RAINFALL =     0.000 (KG/HA)
                   INITIAL NO3 IN SOIL =      83.251 (KG/HA)
                   FINAL NO3 IN SOIL =         0.342 (KG/HA)
                   INITIAL ORG N IN SOIL =    9372.730 (KG/HA)
                   FINAL ORG N IN SOIL =      8994.112 (KG/HA)
                   INITIAL MIN P IN SOIL =    7880.615 (KG/HA)
                   FINAL MIN P IN SOIL =      6841.817 (KG/HA)
                   INITIAL ORG P IN SOIL =    1148.160 (KG/HA)
                   FINAL ORG P IN SOIL =    1132.539 (KG/HA)
                   NO3 IN FERT =    62.026 (KG/HA)
                   AMMONIA IN FERT =     0.000 (KG/HA)
                   ORG N IN FERT =     0.000 (KG/HA)
                   MINERAL P IN FERT =    10.017 (KG/HA)
                   ORG P IN FERT =     0.000 (KG/HA)
                   N REMOVED IN YIELD =   201.416 (KG/HA)
                   P REMOVED IN YIELD =    27.921 (KG/HA)
                   AMMONIA VOLATILIZATION =     0.000 (KG/HA)
                   AMMONIA NITRIFICATION =      0.000 (KG/HA)
                   NO3 EVAP-LAYER 2 TO 1 =   20.494

                   DIE-GRO P Q =           0.0 (No/M2)
                   DIE-GRO LP Q =           0.0 (No/M2)
                   DIE-GRO P SED =          0.0 (No/M2)
                   DIE-GRO LP SED =          0.0 (No/M2)
                   BACT P RUNOFF =          0.0 (No/M2)
                   BACT LP RUNOFF =          0.0 (No/M2)
                   BACT P SEDIMENT =          0.0 (No/M2)
                   BACT LP SEDIMENT =          0.0 (No/M2)
                   BACT P INCORP =          0.0 (No/M2)
                   BACT LP INCORP =          0.0 (No/M2)

                   NITRATE SEPTIC =         0.00 (kg/ha)
                   AMMONIA SEPTIC =         0.00 (kg/ha)
                   ORG N SEPTIC =         0.00 (kg/ha)
                   FRESH ORGN SEPTIC =         0.00 (kg/ha)
                   ORG P SEPTIC =         0.00 (kg/ha)
                   FRESH ORGP SEPTIC =         0.00 (kg/ha)
                   SOL P SEPTIC =         0.00 (kg/ha)
                   BOD SEPTIC =         0.00 (kg/ha)
